* NGSPICE file created from apb_sys_0.ext - technology: sky130A

* Black-box entry subcircuit for sky130_fd_sc_hd__diode_2 abstract view
.subckt sky130_fd_sc_hd__diode_2 DIODE VGND VNB VPB VPWR
.ends

* Black-box entry subcircuit for sky130_fd_sc_hd__decap_8 abstract view
.subckt sky130_fd_sc_hd__decap_8 VGND VNB VPB VPWR
.ends

* Black-box entry subcircuit for sky130_fd_sc_hd__inv_2 abstract view
.subckt sky130_fd_sc_hd__inv_2 A VGND VNB VPB VPWR Y
.ends

* Black-box entry subcircuit for sky130_fd_sc_hd__fill_2 abstract view
.subckt sky130_fd_sc_hd__fill_2 VGND VNB VPB VPWR
.ends

* Black-box entry subcircuit for sky130_fd_sc_hd__fill_1 abstract view
.subckt sky130_fd_sc_hd__fill_1 VGND VNB VPB VPWR
.ends

* Black-box entry subcircuit for sky130_fd_sc_hd__o21a_4 abstract view
.subckt sky130_fd_sc_hd__o21a_4 A1 A2 B1 VGND VNB VPB VPWR X
.ends

* Black-box entry subcircuit for sky130_fd_sc_hd__a2bb2o_4 abstract view
.subckt sky130_fd_sc_hd__a2bb2o_4 A1_N A2_N B1 B2 VGND VNB VPB VPWR X
.ends

* Black-box entry subcircuit for sky130_fd_sc_hd__decap_12 abstract view
.subckt sky130_fd_sc_hd__decap_12 VGND VNB VPB VPWR
.ends

* Black-box entry subcircuit for sky130_fd_sc_hd__decap_3 abstract view
.subckt sky130_fd_sc_hd__decap_3 VGND VNB VPB VPWR
.ends

* Black-box entry subcircuit for sky130_fd_sc_hd__a21oi_4 abstract view
.subckt sky130_fd_sc_hd__a21oi_4 A1 A2 B1 VGND VNB VPB VPWR Y
.ends

* Black-box entry subcircuit for sky130_fd_sc_hd__tapvpwrvgnd_1 abstract view
.subckt sky130_fd_sc_hd__tapvpwrvgnd_1 VGND VPWR
.ends

* Black-box entry subcircuit for sky130_fd_sc_hd__dfxtp_4 abstract view
.subckt sky130_fd_sc_hd__dfxtp_4 CLK D VGND VNB VPB VPWR Q
.ends

* Black-box entry subcircuit for sky130_fd_sc_hd__buf_2 abstract view
.subckt sky130_fd_sc_hd__buf_2 A VGND VNB VPB VPWR X
.ends

* Black-box entry subcircuit for sky130_fd_sc_hd__dfrtp_4 abstract view
.subckt sky130_fd_sc_hd__dfrtp_4 CLK D RESET_B VGND VNB VPB VPWR Q
.ends

* Black-box entry subcircuit for sky130_fd_sc_hd__a32o_4 abstract view
.subckt sky130_fd_sc_hd__a32o_4 A1 A2 A3 B1 B2 VGND VNB VPB VPWR X
.ends

* Black-box entry subcircuit for sky130_fd_sc_hd__and2_4 abstract view
.subckt sky130_fd_sc_hd__and2_4 A B VGND VNB VPB VPWR X
.ends

* Black-box entry subcircuit for sky130_fd_sc_hd__decap_4 abstract view
.subckt sky130_fd_sc_hd__decap_4 VGND VNB VPB VPWR
.ends

* Black-box entry subcircuit for sky130_fd_sc_hd__or2_4 abstract view
.subckt sky130_fd_sc_hd__or2_4 A B VGND VNB VPB VPWR X
.ends

* Black-box entry subcircuit for sky130_fd_sc_hd__and3_4 abstract view
.subckt sky130_fd_sc_hd__and3_4 A B C VGND VNB VPB VPWR X
.ends

* Black-box entry subcircuit for sky130_fd_sc_hd__decap_6 abstract view
.subckt sky130_fd_sc_hd__decap_6 VGND VNB VPB VPWR
.ends

* Black-box entry subcircuit for sky130_fd_sc_hd__clkbuf_1 abstract view
.subckt sky130_fd_sc_hd__clkbuf_1 A VGND VNB VPB VPWR X
.ends

* Black-box entry subcircuit for sky130_fd_sc_hd__o22a_4 abstract view
.subckt sky130_fd_sc_hd__o22a_4 A1 A2 B1 B2 VGND VNB VPB VPWR X
.ends

* Black-box entry subcircuit for sky130_fd_sc_hd__or4_4 abstract view
.subckt sky130_fd_sc_hd__or4_4 A B C D VGND VNB VPB VPWR X
.ends

* Black-box entry subcircuit for sky130_fd_sc_hd__a211o_4 abstract view
.subckt sky130_fd_sc_hd__a211o_4 A1 A2 B1 C1 VGND VNB VPB VPWR X
.ends

* Black-box entry subcircuit for sky130_fd_sc_hd__a21o_4 abstract view
.subckt sky130_fd_sc_hd__a21o_4 A1 A2 B1 VGND VNB VPB VPWR X
.ends

* Black-box entry subcircuit for sky130_fd_sc_hd__or3_4 abstract view
.subckt sky130_fd_sc_hd__or3_4 A B C VGND VNB VPB VPWR X
.ends

* Black-box entry subcircuit for sky130_fd_sc_hd__nor2_4 abstract view
.subckt sky130_fd_sc_hd__nor2_4 A B VGND VNB VPB VPWR Y
.ends

* Black-box entry subcircuit for sky130_fd_sc_hd__dfstp_4 abstract view
.subckt sky130_fd_sc_hd__dfstp_4 CLK D SET_B VGND VNB VPB VPWR Q
.ends

* Black-box entry subcircuit for sky130_fd_sc_hd__nand2_4 abstract view
.subckt sky130_fd_sc_hd__nand2_4 A B VGND VNB VPB VPWR Y
.ends

* Black-box entry subcircuit for sky130_fd_sc_hd__and4_4 abstract view
.subckt sky130_fd_sc_hd__and4_4 A B C D VGND VNB VPB VPWR X
.ends

* Black-box entry subcircuit for sky130_fd_sc_hd__a22oi_4 abstract view
.subckt sky130_fd_sc_hd__a22oi_4 A1 A2 B1 B2 VGND VNB VPB VPWR Y
.ends

* Black-box entry subcircuit for sky130_fd_sc_hd__o32a_4 abstract view
.subckt sky130_fd_sc_hd__o32a_4 A1 A2 A3 B1 B2 VGND VNB VPB VPWR X
.ends

* Black-box entry subcircuit for sky130_fd_sc_hd__conb_1 abstract view
.subckt sky130_fd_sc_hd__conb_1 VGND VNB VPB VPWR HI LO
.ends

* Black-box entry subcircuit for sky130_fd_sc_hd__a21bo_4 abstract view
.subckt sky130_fd_sc_hd__a21bo_4 A1 A2 B1_N VGND VNB VPB VPWR X
.ends

* Black-box entry subcircuit for sky130_fd_sc_hd__a2111o_4 abstract view
.subckt sky130_fd_sc_hd__a2111o_4 A1 A2 B1 C1 D1 VGND VNB VPB VPWR X
.ends

* Black-box entry subcircuit for sky130_fd_sc_hd__o21ai_4 abstract view
.subckt sky130_fd_sc_hd__o21ai_4 A1 A2 B1 VGND VNB VPB VPWR Y
.ends

* Black-box entry subcircuit for sky130_fd_sc_hd__o41a_4 abstract view
.subckt sky130_fd_sc_hd__o41a_4 A1 A2 A3 A4 B1 VGND VNB VPB VPWR X
.ends

* Black-box entry subcircuit for sky130_fd_sc_hd__clkbuf_16 abstract view
.subckt sky130_fd_sc_hd__clkbuf_16 A VGND VNB VPB VPWR X
.ends

* Black-box entry subcircuit for sky130_fd_sc_hd__a21boi_4 abstract view
.subckt sky130_fd_sc_hd__a21boi_4 A1 A2 B1_N VGND VNB VPB VPWR Y
.ends

.subckt apb_sys_0 HADDR[0] HADDR[10] HADDR[11] HADDR[12] HADDR[13] HADDR[14] HADDR[15]
+ HADDR[16] HADDR[17] HADDR[18] HADDR[19] HADDR[1] HADDR[20] HADDR[21] HADDR[22] HADDR[23]
+ HADDR[24] HADDR[25] HADDR[26] HADDR[27] HADDR[28] HADDR[29] HADDR[2] HADDR[30] HADDR[31]
+ HADDR[3] HADDR[4] HADDR[5] HADDR[6] HADDR[7] HADDR[8] HADDR[9] HCLK HRDATA[0] HRDATA[10]
+ HRDATA[11] HRDATA[12] HRDATA[13] HRDATA[14] HRDATA[15] HRDATA[16] HRDATA[17] HRDATA[18]
+ HRDATA[19] HRDATA[1] HRDATA[20] HRDATA[21] HRDATA[22] HRDATA[23] HRDATA[24] HRDATA[25]
+ HRDATA[26] HRDATA[27] HRDATA[28] HRDATA[29] HRDATA[2] HRDATA[30] HRDATA[31] HRDATA[3]
+ HRDATA[4] HRDATA[5] HRDATA[6] HRDATA[7] HRDATA[8] HRDATA[9] HREADY HREADYOUT HRESETn
+ HSEL HTRANS[0] HTRANS[1] HWDATA[0] HWDATA[10] HWDATA[11] HWDATA[12] HWDATA[13] HWDATA[14]
+ HWDATA[15] HWDATA[16] HWDATA[17] HWDATA[18] HWDATA[19] HWDATA[1] HWDATA[20] HWDATA[21]
+ HWDATA[22] HWDATA[23] HWDATA[24] HWDATA[25] HWDATA[26] HWDATA[27] HWDATA[28] HWDATA[29]
+ HWDATA[2] HWDATA[30] HWDATA[31] HWDATA[3] HWDATA[4] HWDATA[5] HWDATA[6] HWDATA[7]
+ HWDATA[8] HWDATA[9] HWRITE IRQ[16] IRQ[17] IRQ[18] IRQ[19] IRQ[20] IRQ[21] IRQ[22]
+ IRQ[23] IRQ[24] IRQ[25] IRQ[26] IRQ[27] IRQ[28] IRQ[29] IRQ[30] IRQ[31] MSI_S2 MSI_S3
+ MSO_S2 MSO_S3 RsRx_S0 RsRx_S1 RsTx_S0 RsTx_S1 SCLK_S2 SCLK_S3 SSn_S2 SSn_S3 pwm_S6
+ pwm_S7 scl_i_S4 scl_i_S5 scl_o_S4 scl_o_S5 scl_oen_o_S4 scl_oen_o_S5 sda_i_S4 sda_i_S5
+ sda_o_S4 sda_o_S5 sda_oen_o_S4 sda_oen_o_S5 VPWR VGND
XANTENNA__13855__A1 _20673_/A VGND VGND VPWR VPWR sky130_fd_sc_hd__diode_2
XANTENNA__21917__A2 _21916_/X VGND VGND VPWR VPWR sky130_fd_sc_hd__diode_2
XANTENNA__15821__A1_N _12293_/Y VGND VGND VPWR VPWR sky130_fd_sc_hd__diode_2
XANTENNA__18243__B1 _15743_/X VGND VGND VPWR VPWR sky130_fd_sc_hd__diode_2
XFILLER_28_918 VGND VGND VPWR VPWR sky130_fd_sc_hd__decap_8
X_18869_ _18868_/X VGND VGND VPWR VPWR _18869_/Y sky130_fd_sc_hd__inv_2
XFILLER_228_857 VGND VGND VPWR VPWR sky130_fd_sc_hd__fill_2
XFILLER_28_929 VGND VGND VPWR VPWR sky130_fd_sc_hd__fill_1
XFILLER_94_361 VGND VGND VPWR VPWR sky130_fd_sc_hd__decap_8
X_20900_ _20898_/Y _20894_/Y _20899_/X VGND VGND VPWR VPWR _20900_/X sky130_fd_sc_hd__o21a_4
X_21880_ _12807_/X _21879_/X _24262_/Q _21431_/X VGND VGND VPWR VPWR _21880_/X sky130_fd_sc_hd__a2bb2o_4
XFILLER_227_367 VGND VGND VPWR VPWR sky130_fd_sc_hd__decap_12
XFILLER_94_394 VGND VGND VPWR VPWR sky130_fd_sc_hd__decap_3
XFILLER_215_529 VGND VGND VPWR VPWR sky130_fd_sc_hd__fill_1
X_20831_ _24036_/Q _24035_/Q _13640_/B VGND VGND VPWR VPWR _20831_/Y sky130_fd_sc_hd__a21oi_4
XFILLER_208_581 VGND VGND VPWR VPWR sky130_fd_sc_hd__decap_8
XFILLER_242_337 VGND VGND VPWR VPWR sky130_fd_sc_hd__fill_2
XANTENNA__24992__RESET_B HRESETn VGND VGND VPWR VPWR sky130_fd_sc_hd__diode_2
XPHY_3109 VGND VPWR sky130_fd_sc_hd__tapvpwrvgnd_1
XANTENNA__15830__A _11774_/A VGND VGND VPWR VPWR sky130_fd_sc_hd__diode_2
X_20762_ _20753_/X _20761_/X _15593_/A _20757_/X VGND VGND VPWR VPWR _20762_/X sky130_fd_sc_hd__a2bb2o_4
X_23550_ _23534_/CLK _23550_/D VGND VGND VPWR VPWR _19976_/A sky130_fd_sc_hd__dfxtp_4
XFILLER_223_562 VGND VGND VPWR VPWR sky130_fd_sc_hd__decap_12
XFILLER_63_792 VGND VGND VPWR VPWR sky130_fd_sc_hd__fill_1
XANTENNA__21551__B _22119_/B VGND VGND VPWR VPWR sky130_fd_sc_hd__diode_2
XANTENNA__24921__RESET_B HRESETn VGND VGND VPWR VPWR sky130_fd_sc_hd__diode_2
XPHY_2408 VGND VPWR sky130_fd_sc_hd__tapvpwrvgnd_1
XPHY_2419 VGND VPWR sky130_fd_sc_hd__tapvpwrvgnd_1
XFILLER_196_926 VGND VGND VPWR VPWR sky130_fd_sc_hd__decap_12
X_22501_ _17358_/A _22430_/X _12772_/A _22299_/X VGND VGND VPWR VPWR _22502_/B sky130_fd_sc_hd__a2bb2o_4
XPHY_1707 VGND VPWR sky130_fd_sc_hd__tapvpwrvgnd_1
X_23481_ _23497_/CLK _20162_/X VGND VGND VPWR VPWR _20161_/A sky130_fd_sc_hd__dfxtp_4
XFILLER_168_639 VGND VGND VPWR VPWR sky130_fd_sc_hd__fill_2
XANTENNA__24239__RESET_B HRESETn VGND VGND VPWR VPWR sky130_fd_sc_hd__diode_2
X_20693_ _13110_/A _13110_/B _13111_/B VGND VGND VPWR VPWR _20693_/Y sky130_fd_sc_hd__a21oi_4
XFILLER_211_757 VGND VGND VPWR VPWR sky130_fd_sc_hd__decap_12
XPHY_1718 VGND VPWR sky130_fd_sc_hd__tapvpwrvgnd_1
XPHY_1729 VGND VPWR sky130_fd_sc_hd__tapvpwrvgnd_1
XFILLER_149_842 VGND VGND VPWR VPWR sky130_fd_sc_hd__decap_12
X_22432_ _22431_/X VGND VGND VPWR VPWR _22432_/X sky130_fd_sc_hd__buf_2
X_25220_ _25113_/CLK _25220_/D HRESETn VGND VGND VPWR VPWR _14091_/A sky130_fd_sc_hd__dfrtp_4
XFILLER_195_458 VGND VGND VPWR VPWR sky130_fd_sc_hd__decap_8
XANTENNA__16309__B1 _15946_/X VGND VGND VPWR VPWR sky130_fd_sc_hd__diode_2
XFILLER_149_864 VGND VGND VPWR VPWR sky130_fd_sc_hd__decap_12
XFILLER_176_650 VGND VGND VPWR VPWR sky130_fd_sc_hd__decap_3
X_22363_ _17730_/X _22342_/Y _22349_/Y _22356_/Y _22362_/Y VGND VGND VPWR VPWR _22363_/X
+ sky130_fd_sc_hd__a32o_4
X_25151_ _23926_/CLK _14378_/X HRESETn VGND VGND VPWR VPWR _20430_/A sky130_fd_sc_hd__dfrtp_4
XFILLER_163_322 VGND VGND VPWR VPWR sky130_fd_sc_hd__decap_12
X_21314_ _22712_/A _21313_/X VGND VGND VPWR VPWR _21314_/X sky130_fd_sc_hd__and2_4
X_24102_ _25471_/CLK _24102_/D HRESETn VGND VGND VPWR VPWR _24102_/Q sky130_fd_sc_hd__dfrtp_4
X_25082_ _25081_/CLK _25082_/D HRESETn VGND VGND VPWR VPWR _14615_/A sky130_fd_sc_hd__dfrtp_4
XANTENNA__23055__B1 _12796_/A VGND VGND VPWR VPWR sky130_fd_sc_hd__diode_2
X_22294_ _22451_/A VGND VGND VPWR VPWR _22294_/X sky130_fd_sc_hd__buf_2
X_24033_ _24032_/CLK _20820_/X HRESETn VGND VGND VPWR VPWR _13125_/C sky130_fd_sc_hd__dfrtp_4
XFILLER_163_377 VGND VGND VPWR VPWR sky130_fd_sc_hd__decap_4
XFILLER_105_912 VGND VGND VPWR VPWR sky130_fd_sc_hd__decap_3
X_21245_ _21250_/A _21245_/B VGND VGND VPWR VPWR _21245_/X sky130_fd_sc_hd__or2_4
XANTENNA__14181__A _14181_/A VGND VGND VPWR VPWR sky130_fd_sc_hd__diode_2
XANTENNA__25098__RESET_B HRESETn VGND VGND VPWR VPWR sky130_fd_sc_hd__diode_2
XFILLER_77_15 VGND VGND VPWR VPWR sky130_fd_sc_hd__decap_12
X_21176_ _21176_/A VGND VGND VPWR VPWR _21955_/A sky130_fd_sc_hd__buf_2
XANTENNA__25027__RESET_B HRESETn VGND VGND VPWR VPWR sky130_fd_sc_hd__diode_2
X_20127_ _20127_/A VGND VGND VPWR VPWR _21636_/B sky130_fd_sc_hd__inv_2
XFILLER_58_520 VGND VGND VPWR VPWR sky130_fd_sc_hd__decap_3
XANTENNA__12649__A2 _12626_/D VGND VGND VPWR VPWR sky130_fd_sc_hd__diode_2
X_20058_ _20053_/X _18328_/X _13829_/A _13260_/B _20055_/X VGND VGND VPWR VPWR _23520_/D
+ sky130_fd_sc_hd__a32o_4
X_24935_ _23476_/CLK _15517_/X HRESETn VGND VGND VPWR VPWR _11673_/B sky130_fd_sc_hd__dfrtp_4
XFILLER_218_345 VGND VGND VPWR VPWR sky130_fd_sc_hd__fill_1
X_11900_ _19967_/A VGND VGND VPWR VPWR _19603_/A sky130_fd_sc_hd__buf_2
XANTENNA__13525__A _15908_/A VGND VGND VPWR VPWR sky130_fd_sc_hd__diode_2
X_12880_ _12861_/A _12880_/B _12880_/C VGND VGND VPWR VPWR _25393_/D sky130_fd_sc_hd__and3_4
X_24866_ _24866_/CLK _15749_/X HRESETn VGND VGND VPWR VPWR _24866_/Q sky130_fd_sc_hd__dfrtp_4
XFILLER_133_98 VGND VGND VPWR VPWR sky130_fd_sc_hd__decap_6
XPHY_4300 VGND VPWR sky130_fd_sc_hd__tapvpwrvgnd_1
XFILLER_172_3 VGND VGND VPWR VPWR sky130_fd_sc_hd__decap_8
XPHY_4311 VGND VPWR sky130_fd_sc_hd__tapvpwrvgnd_1
XANTENNA__22838__A _21030_/A VGND VGND VPWR VPWR sky130_fd_sc_hd__diode_2
XFILLER_234_849 VGND VGND VPWR VPWR sky130_fd_sc_hd__fill_2
XFILLER_26_30 VGND VGND VPWR VPWR sky130_fd_sc_hd__fill_1
Xclkbuf_8_128_0_HCLK clkbuf_7_64_0_HCLK/X VGND VGND VPWR VPWR _23644_/CLK sky130_fd_sc_hd__clkbuf_1
XPHY_4322 VGND VPWR sky130_fd_sc_hd__tapvpwrvgnd_1
X_11831_ _11829_/A _24227_/Q _11829_/Y _11830_/Y VGND VGND VPWR VPWR _11831_/X sky130_fd_sc_hd__o22a_4
X_23817_ _23873_/CLK _19214_/X VGND VGND VPWR VPWR _23817_/Q sky130_fd_sc_hd__dfxtp_4
XPHY_4333 VGND VPWR sky130_fd_sc_hd__tapvpwrvgnd_1
XFILLER_199_720 VGND VGND VPWR VPWR sky130_fd_sc_hd__fill_1
XFILLER_61_718 VGND VGND VPWR VPWR sky130_fd_sc_hd__decap_3
XPHY_4344 VGND VPWR sky130_fd_sc_hd__tapvpwrvgnd_1
X_24797_ _24800_/CLK _24797_/D HRESETn VGND VGND VPWR VPWR _24797_/Q sky130_fd_sc_hd__dfrtp_4
XPHY_4355 VGND VPWR sky130_fd_sc_hd__tapvpwrvgnd_1
XPHY_3610 VGND VPWR sky130_fd_sc_hd__tapvpwrvgnd_1
XANTENNA__19734__B1 _19711_/X VGND VGND VPWR VPWR sky130_fd_sc_hd__diode_2
XPHY_4366 VGND VPWR sky130_fd_sc_hd__tapvpwrvgnd_1
XPHY_3621 VGND VPWR sky130_fd_sc_hd__tapvpwrvgnd_1
X_14550_ _14550_/A _14550_/B VGND VGND VPWR VPWR _14550_/X sky130_fd_sc_hd__or2_4
XANTENNA__24662__RESET_B HRESETn VGND VGND VPWR VPWR sky130_fd_sc_hd__diode_2
XPHY_4377 VGND VPWR sky130_fd_sc_hd__tapvpwrvgnd_1
XPHY_3632 VGND VPWR sky130_fd_sc_hd__tapvpwrvgnd_1
X_11762_ _11759_/Y _11756_/X _11761_/X _11756_/X VGND VGND VPWR VPWR _25527_/D sky130_fd_sc_hd__a2bb2o_4
X_23748_ _24889_/CLK _23748_/D VGND VGND VPWR VPWR _19405_/A sky130_fd_sc_hd__dfxtp_4
XPHY_3643 VGND VPWR sky130_fd_sc_hd__tapvpwrvgnd_1
XPHY_3654 VGND VPWR sky130_fd_sc_hd__tapvpwrvgnd_1
XFILLER_159_617 VGND VGND VPWR VPWR sky130_fd_sc_hd__fill_1
XFILLER_187_926 VGND VGND VPWR VPWR sky130_fd_sc_hd__decap_12
XPHY_3665 VGND VPWR sky130_fd_sc_hd__tapvpwrvgnd_1
XPHY_2920 VGND VPWR sky130_fd_sc_hd__tapvpwrvgnd_1
X_13501_ _25308_/Q VGND VGND VPWR VPWR _13501_/Y sky130_fd_sc_hd__inv_2
XFILLER_186_403 VGND VGND VPWR VPWR sky130_fd_sc_hd__decap_4
XPHY_3676 VGND VPWR sky130_fd_sc_hd__tapvpwrvgnd_1
XPHY_2931 VGND VPWR sky130_fd_sc_hd__tapvpwrvgnd_1
XFILLER_158_105 VGND VGND VPWR VPWR sky130_fd_sc_hd__decap_12
XPHY_2942 VGND VPWR sky130_fd_sc_hd__tapvpwrvgnd_1
X_14481_ _25114_/Q VGND VGND VPWR VPWR _14481_/Y sky130_fd_sc_hd__inv_2
XPHY_3687 VGND VPWR sky130_fd_sc_hd__tapvpwrvgnd_1
X_11693_ _11690_/Y _11684_/X _11691_/X _11692_/X VGND VGND VPWR VPWR _11693_/X sky130_fd_sc_hd__a2bb2o_4
X_23679_ _23559_/CLK _23679_/D VGND VGND VPWR VPWR _19609_/A sky130_fd_sc_hd__dfxtp_4
XPHY_3698 VGND VPWR sky130_fd_sc_hd__tapvpwrvgnd_1
XPHY_2953 VGND VPWR sky130_fd_sc_hd__tapvpwrvgnd_1
XPHY_2964 VGND VPWR sky130_fd_sc_hd__tapvpwrvgnd_1
X_16220_ _16219_/Y _16215_/X _15953_/X _16215_/X VGND VGND VPWR VPWR _24664_/D sky130_fd_sc_hd__a2bb2o_4
XFILLER_41_486 VGND VGND VPWR VPWR sky130_fd_sc_hd__fill_2
XPHY_2975 VGND VPWR sky130_fd_sc_hd__tapvpwrvgnd_1
X_13432_ _13193_/A _13432_/B _13431_/X VGND VGND VPWR VPWR _13432_/X sky130_fd_sc_hd__and3_4
X_25418_ _25409_/CLK _25418_/D HRESETn VGND VGND VPWR VPWR _25418_/Q sky130_fd_sc_hd__dfrtp_4
XFILLER_13_188 VGND VGND VPWR VPWR sky130_fd_sc_hd__decap_8
XPHY_2986 VGND VPWR sky130_fd_sc_hd__tapvpwrvgnd_1
XFILLER_174_609 VGND VGND VPWR VPWR sky130_fd_sc_hd__fill_2
XPHY_2997 VGND VPWR sky130_fd_sc_hd__tapvpwrvgnd_1
XANTENNA__22636__A3 _21312_/X VGND VGND VPWR VPWR sky130_fd_sc_hd__diode_2
XFILLER_155_812 VGND VGND VPWR VPWR sky130_fd_sc_hd__fill_1
XFILLER_167_672 VGND VGND VPWR VPWR sky130_fd_sc_hd__fill_1
XFILLER_6_800 VGND VGND VPWR VPWR sky130_fd_sc_hd__decap_8
X_16151_ _16149_/Y _16150_/X _16059_/X _16150_/X VGND VGND VPWR VPWR _16151_/X sky130_fd_sc_hd__a2bb2o_4
XFILLER_139_374 VGND VGND VPWR VPWR sky130_fd_sc_hd__decap_3
XANTENNA__12585__B2 _24858_/Q VGND VGND VPWR VPWR sky130_fd_sc_hd__diode_2
X_13363_ _13363_/A _23387_/Q VGND VGND VPWR VPWR _13365_/B sky130_fd_sc_hd__or2_4
X_25349_ _25346_/CLK _25349_/D HRESETn VGND VGND VPWR VPWR _25349_/Q sky130_fd_sc_hd__dfrtp_4
XFILLER_158_62 VGND VGND VPWR VPWR sky130_fd_sc_hd__decap_8
X_15102_ _15102_/A _15095_/X _15102_/C _15101_/X VGND VGND VPWR VPWR _15102_/X sky130_fd_sc_hd__or4_4
XFILLER_154_333 VGND VGND VPWR VPWR sky130_fd_sc_hd__decap_3
XFILLER_127_547 VGND VGND VPWR VPWR sky130_fd_sc_hd__fill_2
X_12314_ _12304_/X _12314_/B _12310_/X _12314_/D VGND VGND VPWR VPWR _12328_/C sky130_fd_sc_hd__or4_4
X_16082_ _22816_/A VGND VGND VPWR VPWR _22505_/B sky130_fd_sc_hd__buf_2
X_13294_ _13363_/A _13294_/B VGND VGND VPWR VPWR _13294_/X sky130_fd_sc_hd__or2_4
X_15033_ _14942_/Y VGND VGND VPWR VPWR _15204_/B sky130_fd_sc_hd__buf_2
X_19910_ _19909_/Y _19905_/X _19820_/X _19905_/X VGND VGND VPWR VPWR _19910_/X sky130_fd_sc_hd__a2bb2o_4
XFILLER_170_837 VGND VGND VPWR VPWR sky130_fd_sc_hd__fill_2
X_12245_ _24768_/Q VGND VGND VPWR VPWR _12245_/Y sky130_fd_sc_hd__inv_2
XANTENNA__16721__D _21327_/B VGND VGND VPWR VPWR sky130_fd_sc_hd__diode_2
XFILLER_123_753 VGND VGND VPWR VPWR sky130_fd_sc_hd__decap_3
XANTENNA__25450__RESET_B HRESETn VGND VGND VPWR VPWR sky130_fd_sc_hd__diode_2
X_12176_ _12176_/A VGND VGND VPWR VPWR _12428_/C sky130_fd_sc_hd__buf_2
X_19841_ _19839_/Y _19835_/X _19813_/X _19840_/X VGND VGND VPWR VPWR _19841_/X sky130_fd_sc_hd__a2bb2o_4
XANTENNA__25305__SET_B HRESETn VGND VGND VPWR VPWR sky130_fd_sc_hd__diode_2
X_16984_ _24391_/Q VGND VGND VPWR VPWR _16984_/Y sky130_fd_sc_hd__inv_2
X_19772_ _21888_/B _19769_/X _16873_/X _19769_/X VGND VGND VPWR VPWR _23623_/D sky130_fd_sc_hd__a2bb2o_4
X_15935_ _15931_/X VGND VGND VPWR VPWR _15935_/X sky130_fd_sc_hd__buf_2
X_18723_ _18734_/A _18723_/B _18722_/X VGND VGND VPWR VPWR _24153_/D sky130_fd_sc_hd__and3_4
XANTENNA__15635__A2_N _15553_/A VGND VGND VPWR VPWR sky130_fd_sc_hd__diode_2
Xclkbuf_7_24_0_HCLK clkbuf_7_25_0_HCLK/A VGND VGND VPWR VPWR clkbuf_8_49_0_HCLK/A
+ sky130_fd_sc_hd__clkbuf_1
XANTENNA__13435__A _13334_/A VGND VGND VPWR VPWR sky130_fd_sc_hd__diode_2
X_18654_ _18648_/X _18654_/B _18651_/X _18653_/X VGND VGND VPWR VPWR _18669_/B sky130_fd_sc_hd__or4_4
X_15866_ _12747_/Y _15862_/X _15564_/X _15865_/X VGND VGND VPWR VPWR _15866_/X sky130_fd_sc_hd__a2bb2o_4
Xclkbuf_7_87_0_HCLK clkbuf_7_87_0_HCLK/A VGND VGND VPWR VPWR clkbuf_7_87_0_HCLK/X
+ sky130_fd_sc_hd__clkbuf_1
XFILLER_225_827 VGND VGND VPWR VPWR sky130_fd_sc_hd__decap_12
XANTENNA__22748__A _24763_/Q VGND VGND VPWR VPWR sky130_fd_sc_hd__diode_2
X_14817_ _23994_/Q VGND VGND VPWR VPWR _14817_/X sky130_fd_sc_hd__buf_2
X_17605_ _17561_/Y _17603_/X _17604_/X _17598_/Y VGND VGND VPWR VPWR _17606_/A sky130_fd_sc_hd__a211o_4
X_18585_ _18562_/A _18562_/B _18583_/B _18500_/X VGND VGND VPWR VPWR _18585_/X sky130_fd_sc_hd__a211o_4
X_15797_ _12297_/Y _15793_/X _15564_/X _15796_/X VGND VGND VPWR VPWR _24847_/D sky130_fd_sc_hd__a2bb2o_4
XFILLER_51_206 VGND VGND VPWR VPWR sky130_fd_sc_hd__decap_8
XFILLER_240_819 VGND VGND VPWR VPWR sky130_fd_sc_hd__decap_4
X_17536_ _11690_/Y _17563_/A _11690_/Y _17563_/A VGND VGND VPWR VPWR _17536_/X sky130_fd_sc_hd__a2bb2o_4
XANTENNA__19122__A _18981_/A VGND VGND VPWR VPWR sky130_fd_sc_hd__diode_2
X_14748_ _14745_/X VGND VGND VPWR VPWR _14748_/Y sky130_fd_sc_hd__inv_2
XFILLER_60_751 VGND VGND VPWR VPWR sky130_fd_sc_hd__fill_1
XANTENNA__24332__RESET_B HRESETn VGND VGND VPWR VPWR sky130_fd_sc_hd__diode_2
X_17467_ _18910_/A _18336_/A _17481_/B VGND VGND VPWR VPWR _17467_/X sky130_fd_sc_hd__a21o_4
X_14679_ _13724_/X _14678_/X _13724_/X _14678_/X VGND VGND VPWR VPWR _14714_/A sky130_fd_sc_hd__a2bb2o_4
XFILLER_20_626 VGND VGND VPWR VPWR sky130_fd_sc_hd__fill_1
X_16418_ _16418_/A VGND VGND VPWR VPWR _16418_/X sky130_fd_sc_hd__buf_2
X_19206_ _19205_/Y _19199_/X _19138_/X _19191_/A VGND VGND VPWR VPWR _23819_/D sky130_fd_sc_hd__a2bb2o_4
XANTENNA__22088__A1 _21773_/X VGND VGND VPWR VPWR sky130_fd_sc_hd__diode_2
XANTENNA__23285__B1 _24113_/Q VGND VGND VPWR VPWR sky130_fd_sc_hd__diode_2
X_17398_ _17398_/A VGND VGND VPWR VPWR _17398_/X sky130_fd_sc_hd__buf_2
X_19137_ _23843_/Q VGND VGND VPWR VPWR _19137_/Y sky130_fd_sc_hd__inv_2
XFILLER_146_823 VGND VGND VPWR VPWR sky130_fd_sc_hd__fill_1
XFILLER_9_660 VGND VGND VPWR VPWR sky130_fd_sc_hd__decap_4
XANTENNA__13773__B1 _13459_/X VGND VGND VPWR VPWR sky130_fd_sc_hd__diode_2
X_16349_ _14380_/A VGND VGND VPWR VPWR _16349_/X sky130_fd_sc_hd__buf_2
XANTENNA__16481__A _24568_/Q VGND VGND VPWR VPWR sky130_fd_sc_hd__diode_2
XANTENNA__25538__RESET_B HRESETn VGND VGND VPWR VPWR sky130_fd_sc_hd__diode_2
X_19068_ _19065_/Y _19062_/X _19067_/X _19062_/X VGND VGND VPWR VPWR _19068_/X sky130_fd_sc_hd__a2bb2o_4
XANTENNA__21099__A _22525_/A VGND VGND VPWR VPWR sky130_fd_sc_hd__diode_2
XFILLER_161_826 VGND VGND VPWR VPWR sky130_fd_sc_hd__decap_3
XFILLER_133_517 VGND VGND VPWR VPWR sky130_fd_sc_hd__decap_12
X_18019_ _18060_/A _18016_/X _18019_/C VGND VGND VPWR VPWR _18020_/C sky130_fd_sc_hd__and3_4
XANTENNA__15097__A _24604_/Q VGND VGND VPWR VPWR sky130_fd_sc_hd__diode_2
XANTENNA__16504__A1_N _16503_/Y VGND VGND VPWR VPWR sky130_fd_sc_hd__diode_2
XFILLER_114_731 VGND VGND VPWR VPWR sky130_fd_sc_hd__decap_12
X_21030_ _21030_/A VGND VGND VPWR VPWR _22730_/A sky130_fd_sc_hd__buf_2
XANTENNA__25191__RESET_B HRESETn VGND VGND VPWR VPWR sky130_fd_sc_hd__diode_2
XANTENNA__21827__A _22393_/A VGND VGND VPWR VPWR sky130_fd_sc_hd__diode_2
XFILLER_141_550 VGND VGND VPWR VPWR sky130_fd_sc_hd__decap_8
XFILLER_114_764 VGND VGND VPWR VPWR sky130_fd_sc_hd__decap_4
XFILLER_141_561 VGND VGND VPWR VPWR sky130_fd_sc_hd__decap_12
XANTENNA__25120__RESET_B HRESETn VGND VGND VPWR VPWR sky130_fd_sc_hd__diode_2
XFILLER_113_274 VGND VGND VPWR VPWR sky130_fd_sc_hd__decap_3
XANTENNA__18201__A _18095_/A VGND VGND VPWR VPWR sky130_fd_sc_hd__diode_2
XFILLER_68_851 VGND VGND VPWR VPWR sky130_fd_sc_hd__decap_6
XFILLER_101_458 VGND VGND VPWR VPWR sky130_fd_sc_hd__decap_6
X_22981_ _22908_/X _22980_/X _22495_/X _25541_/Q _22910_/X VGND VGND VPWR VPWR _22981_/X
+ sky130_fd_sc_hd__a32o_4
XFILLER_95_670 VGND VGND VPWR VPWR sky130_fd_sc_hd__fill_1
XFILLER_55_501 VGND VGND VPWR VPWR sky130_fd_sc_hd__fill_1
X_24720_ _24744_/CLK _16066_/X HRESETn VGND VGND VPWR VPWR _24720_/Q sky130_fd_sc_hd__dfrtp_4
XFILLER_227_142 VGND VGND VPWR VPWR sky130_fd_sc_hd__decap_12
XFILLER_27_214 VGND VGND VPWR VPWR sky130_fd_sc_hd__decap_8
X_21932_ _21936_/A _19998_/Y VGND VGND VPWR VPWR _21933_/C sky130_fd_sc_hd__or2_4
XFILLER_215_304 VGND VGND VPWR VPWR sky130_fd_sc_hd__fill_1
XFILLER_216_849 VGND VGND VPWR VPWR sky130_fd_sc_hd__decap_12
X_24651_ _24654_/CLK _24651_/D HRESETn VGND VGND VPWR VPWR _21842_/A sky130_fd_sc_hd__dfrtp_4
X_21863_ _21127_/X VGND VGND VPWR VPWR _21863_/X sky130_fd_sc_hd__buf_2
XFILLER_24_910 VGND VGND VPWR VPWR sky130_fd_sc_hd__fill_2
XFILLER_242_145 VGND VGND VPWR VPWR sky130_fd_sc_hd__fill_1
XFILLER_82_386 VGND VGND VPWR VPWR sky130_fd_sc_hd__fill_2
X_23602_ _24199_/CLK _23602_/D VGND VGND VPWR VPWR _23602_/Q sky130_fd_sc_hd__dfxtp_4
XANTENNA__15560__A HWDATA[28] VGND VGND VPWR VPWR sky130_fd_sc_hd__diode_2
X_20814_ _13125_/A _13125_/B _20805_/A VGND VGND VPWR VPWR _20814_/X sky130_fd_sc_hd__or3_4
X_21794_ _21657_/A _19866_/Y VGND VGND VPWR VPWR _21796_/B sky130_fd_sc_hd__or2_4
X_24582_ _24980_/CLK _24582_/D HRESETn VGND VGND VPWR VPWR _15110_/A sky130_fd_sc_hd__dfrtp_4
XPHY_905 VGND VPWR sky130_fd_sc_hd__tapvpwrvgnd_1
XPHY_2205 VGND VPWR sky130_fd_sc_hd__tapvpwrvgnd_1
XPHY_916 VGND VPWR sky130_fd_sc_hd__tapvpwrvgnd_1
XPHY_2216 VGND VPWR sky130_fd_sc_hd__tapvpwrvgnd_1
XPHY_927 VGND VPWR sky130_fd_sc_hd__tapvpwrvgnd_1
XPHY_938 VGND VPWR sky130_fd_sc_hd__tapvpwrvgnd_1
XPHY_2227 VGND VPWR sky130_fd_sc_hd__tapvpwrvgnd_1
X_23533_ _23411_/CLK _23533_/D VGND VGND VPWR VPWR _20024_/A sky130_fd_sc_hd__dfxtp_4
XPHY_949 VGND VPWR sky130_fd_sc_hd__tapvpwrvgnd_1
XANTENNA__24073__RESET_B HRESETn VGND VGND VPWR VPWR sky130_fd_sc_hd__diode_2
XPHY_2238 VGND VPWR sky130_fd_sc_hd__tapvpwrvgnd_1
X_20745_ _13121_/A _13121_/B VGND VGND VPWR VPWR _20749_/A sky130_fd_sc_hd__or2_4
XFILLER_23_464 VGND VGND VPWR VPWR sky130_fd_sc_hd__fill_2
XPHY_2249 VGND VPWR sky130_fd_sc_hd__tapvpwrvgnd_1
XPHY_1504 VGND VPWR sky130_fd_sc_hd__tapvpwrvgnd_1
XPHY_1515 VGND VPWR sky130_fd_sc_hd__tapvpwrvgnd_1
XPHY_1526 VGND VPWR sky130_fd_sc_hd__tapvpwrvgnd_1
XPHY_1537 VGND VPWR sky130_fd_sc_hd__tapvpwrvgnd_1
XANTENNA__24002__RESET_B HRESETn VGND VGND VPWR VPWR sky130_fd_sc_hd__diode_2
X_20676_ _20510_/B VGND VGND VPWR VPWR _20676_/Y sky130_fd_sc_hd__inv_2
X_23464_ _23464_/CLK _20207_/X VGND VGND VPWR VPWR _18033_/B sky130_fd_sc_hd__dfxtp_4
XPHY_1548 VGND VPWR sky130_fd_sc_hd__tapvpwrvgnd_1
XANTENNA__22393__A _22393_/A VGND VGND VPWR VPWR sky130_fd_sc_hd__diode_2
XPHY_1559 VGND VPWR sky130_fd_sc_hd__tapvpwrvgnd_1
XFILLER_109_503 VGND VGND VPWR VPWR sky130_fd_sc_hd__fill_1
X_25203_ _25204_/CLK _25203_/D HRESETn VGND VGND VPWR VPWR _14203_/A sky130_fd_sc_hd__dfrtp_4
X_22415_ _22725_/A _22414_/Y VGND VGND VPWR VPWR _22427_/C sky130_fd_sc_hd__nor2_4
XFILLER_148_171 VGND VGND VPWR VPWR sky130_fd_sc_hd__fill_1
X_23395_ _25272_/CLK _20381_/X VGND VGND VPWR VPWR _23395_/Q sky130_fd_sc_hd__dfxtp_4
XFILLER_137_845 VGND VGND VPWR VPWR sky130_fd_sc_hd__decap_6
XFILLER_6_129 VGND VGND VPWR VPWR sky130_fd_sc_hd__decap_8
XANTENNA__16391__A HWDATA[22] VGND VGND VPWR VPWR sky130_fd_sc_hd__diode_2
XANTENNA__25279__RESET_B HRESETn VGND VGND VPWR VPWR sky130_fd_sc_hd__diode_2
X_25134_ _25134_/CLK _14434_/X HRESETn VGND VGND VPWR VPWR _14433_/A sky130_fd_sc_hd__dfstp_4
XFILLER_109_558 VGND VGND VPWR VPWR sky130_fd_sc_hd__fill_1
XFILLER_12_65 VGND VGND VPWR VPWR sky130_fd_sc_hd__decap_12
X_22346_ _21935_/A _22346_/B VGND VGND VPWR VPWR _22348_/B sky130_fd_sc_hd__or2_4
XFILLER_152_815 VGND VGND VPWR VPWR sky130_fd_sc_hd__decap_3
XANTENNA__16702__B1 _16522_/X VGND VGND VPWR VPWR sky130_fd_sc_hd__diode_2
XANTENNA__13516__B1 SCLK_S2 VGND VGND VPWR VPWR sky130_fd_sc_hd__diode_2
XANTENNA__25208__RESET_B HRESETn VGND VGND VPWR VPWR sky130_fd_sc_hd__diode_2
XFILLER_163_174 VGND VGND VPWR VPWR sky130_fd_sc_hd__decap_3
X_22277_ _22274_/X _22276_/X _21306_/C _24826_/Q _21082_/X VGND VGND VPWR VPWR _22277_/X
+ sky130_fd_sc_hd__a32o_4
X_25065_ _25070_/CLK _25065_/D HRESETn VGND VGND VPWR VPWR _22044_/A sky130_fd_sc_hd__dfrtp_4
XANTENNA__18640__A1_N _16576_/A VGND VGND VPWR VPWR sky130_fd_sc_hd__diode_2
XFILLER_105_731 VGND VGND VPWR VPWR sky130_fd_sc_hd__fill_1
X_12030_ _12029_/Y _12027_/X _25488_/Q _12027_/X VGND VGND VPWR VPWR _25489_/D sky130_fd_sc_hd__a2bb2o_4
X_21228_ _21024_/X VGND VGND VPWR VPWR _21235_/A sky130_fd_sc_hd__buf_2
X_24016_ _24049_/CLK _20747_/X HRESETn VGND VGND VPWR VPWR _13121_/A sky130_fd_sc_hd__dfrtp_4
XFILLER_144_42 VGND VGND VPWR VPWR sky130_fd_sc_hd__fill_1
XANTENNA__15735__A HWDATA[16] VGND VGND VPWR VPWR sky130_fd_sc_hd__diode_2
X_21159_ _21159_/A VGND VGND VPWR VPWR _21159_/X sky130_fd_sc_hd__buf_2
X_13981_ _13990_/A _13978_/X _13980_/X VGND VGND VPWR VPWR _13981_/X sky130_fd_sc_hd__or3_4
XFILLER_93_618 VGND VGND VPWR VPWR sky130_fd_sc_hd__fill_1
XFILLER_46_501 VGND VGND VPWR VPWR sky130_fd_sc_hd__fill_1
XFILLER_92_117 VGND VGND VPWR VPWR sky130_fd_sc_hd__fill_1
X_15720_ _15540_/X _15709_/X _15719_/X _24881_/Q _15707_/X VGND VGND VPWR VPWR _15720_/X
+ sky130_fd_sc_hd__a32o_4
XFILLER_86_681 VGND VGND VPWR VPWR sky130_fd_sc_hd__decap_12
XFILLER_74_821 VGND VGND VPWR VPWR sky130_fd_sc_hd__fill_1
X_12932_ _12834_/A _12756_/X _12834_/C _12931_/X VGND VGND VPWR VPWR _12932_/X sky130_fd_sc_hd__or4_4
X_24918_ _24508_/CLK _15571_/X HRESETn VGND VGND VPWR VPWR _24918_/Q sky130_fd_sc_hd__dfrtp_4
XFILLER_37_40 VGND VGND VPWR VPWR sky130_fd_sc_hd__fill_1
XANTENNA__24843__RESET_B HRESETn VGND VGND VPWR VPWR sky130_fd_sc_hd__diode_2
XFILLER_234_613 VGND VGND VPWR VPWR sky130_fd_sc_hd__fill_2
XFILLER_46_545 VGND VGND VPWR VPWR sky130_fd_sc_hd__decap_6
XFILLER_37_62 VGND VGND VPWR VPWR sky130_fd_sc_hd__fill_1
XFILLER_234_635 VGND VGND VPWR VPWR sky130_fd_sc_hd__decap_6
X_15651_ _15651_/A VGND VGND VPWR VPWR _15651_/X sky130_fd_sc_hd__buf_2
XFILLER_206_337 VGND VGND VPWR VPWR sky130_fd_sc_hd__decap_6
X_12863_ _12857_/A _12851_/X _12862_/X _12859_/B VGND VGND VPWR VPWR _12864_/A sky130_fd_sc_hd__a211o_4
X_24849_ _25341_/CLK _24849_/D HRESETn VGND VGND VPWR VPWR _24849_/Q sky130_fd_sc_hd__dfrtp_4
XPHY_4130 VGND VPWR sky130_fd_sc_hd__tapvpwrvgnd_1
XFILLER_73_375 VGND VGND VPWR VPWR sky130_fd_sc_hd__decap_3
XFILLER_46_589 VGND VGND VPWR VPWR sky130_fd_sc_hd__decap_3
XANTENNA__16566__A _16566_/A VGND VGND VPWR VPWR sky130_fd_sc_hd__diode_2
XANTENNA__22306__A2 _21441_/X VGND VGND VPWR VPWR sky130_fd_sc_hd__diode_2
XPHY_4141 VGND VPWR sky130_fd_sc_hd__tapvpwrvgnd_1
X_14602_ _25081_/Q VGND VGND VPWR VPWR _14602_/Y sky130_fd_sc_hd__inv_2
XPHY_4152 VGND VPWR sky130_fd_sc_hd__tapvpwrvgnd_1
X_11814_ _11814_/A VGND VGND VPWR VPWR _11814_/Y sky130_fd_sc_hd__inv_2
X_18370_ _18369_/Y _18357_/Y _18354_/A _18356_/X VGND VGND VPWR VPWR _24199_/D sky130_fd_sc_hd__o22a_4
XPHY_4163 VGND VPWR sky130_fd_sc_hd__tapvpwrvgnd_1
X_15582_ _15580_/Y _15576_/X _15581_/X _15576_/X VGND VGND VPWR VPWR _24914_/D sky130_fd_sc_hd__a2bb2o_4
XANTENNA__12255__B1 _12254_/Y VGND VGND VPWR VPWR sky130_fd_sc_hd__diode_2
XPHY_4174 VGND VPWR sky130_fd_sc_hd__tapvpwrvgnd_1
X_12794_ _12793_/Y VGND VGND VPWR VPWR _22667_/A sky130_fd_sc_hd__buf_2
XANTENNA__20088__A _20088_/A VGND VGND VPWR VPWR sky130_fd_sc_hd__diode_2
XPHY_4185 VGND VPWR sky130_fd_sc_hd__tapvpwrvgnd_1
XPHY_3440 VGND VPWR sky130_fd_sc_hd__tapvpwrvgnd_1
XFILLER_221_329 VGND VGND VPWR VPWR sky130_fd_sc_hd__decap_12
XPHY_3451 VGND VPWR sky130_fd_sc_hd__tapvpwrvgnd_1
X_17321_ _17318_/B VGND VGND VPWR VPWR _17322_/B sky130_fd_sc_hd__inv_2