* NGSPICE file created from apb_sys_0.ext - technology: sky130A

* Black-box entry subcircuit for sky130_fd_sc_hd__diode_2 abstract view
.subckt sky130_fd_sc_hd__diode_2 DIODE VGND VNB VPB VPWR
.ends

* Black-box entry subcircuit for sky130_fd_sc_hd__buf_2 abstract view
.subckt sky130_fd_sc_hd__buf_2 A VGND VNB VPB VPWR X
.ends

* Black-box entry subcircuit for sky130_fd_sc_hd__or2_4 abstract view
.subckt sky130_fd_sc_hd__or2_4 A B VGND VNB VPB VPWR X
.ends

* Black-box entry subcircuit for sky130_fd_sc_hd__decap_4 abstract view
.subckt sky130_fd_sc_hd__decap_4 VGND VNB VPB VPWR
.ends

* Black-box entry subcircuit for sky130_fd_sc_hd__inv_2 abstract view
.subckt sky130_fd_sc_hd__inv_2 A VGND VNB VPB VPWR Y
.ends

* Black-box entry subcircuit for sky130_fd_sc_hd__decap_12 abstract view
.subckt sky130_fd_sc_hd__decap_12 VGND VNB VPB VPWR
.ends

* Black-box entry subcircuit for sky130_fd_sc_hd__tapvpwrvgnd_1 abstract view
.subckt sky130_fd_sc_hd__tapvpwrvgnd_1 VGND VPWR
.ends

* Black-box entry subcircuit for sky130_fd_sc_hd__dfxtp_4 abstract view
.subckt sky130_fd_sc_hd__dfxtp_4 CLK D VGND VNB VPB VPWR Q
.ends

* Black-box entry subcircuit for sky130_fd_sc_hd__fill_1 abstract view
.subckt sky130_fd_sc_hd__fill_1 VGND VNB VPB VPWR
.ends

* Black-box entry subcircuit for sky130_fd_sc_hd__o22a_4 abstract view
.subckt sky130_fd_sc_hd__o22a_4 A1 A2 B1 B2 VGND VNB VPB VPWR X
.ends

* Black-box entry subcircuit for sky130_fd_sc_hd__dfrtp_4 abstract view
.subckt sky130_fd_sc_hd__dfrtp_4 CLK D RESET_B VGND VNB VPB VPWR Q
.ends

* Black-box entry subcircuit for sky130_fd_sc_hd__decap_6 abstract view
.subckt sky130_fd_sc_hd__decap_6 VGND VNB VPB VPWR
.ends

* Black-box entry subcircuit for sky130_fd_sc_hd__fill_2 abstract view
.subckt sky130_fd_sc_hd__fill_2 VGND VNB VPB VPWR
.ends

* Black-box entry subcircuit for sky130_fd_sc_hd__a2bb2o_4 abstract view
.subckt sky130_fd_sc_hd__a2bb2o_4 A1_N A2_N B1 B2 VGND VNB VPB VPWR X
.ends

* Black-box entry subcircuit for sky130_fd_sc_hd__and2_4 abstract view
.subckt sky130_fd_sc_hd__and2_4 A B VGND VNB VPB VPWR X
.ends

* Black-box entry subcircuit for sky130_fd_sc_hd__clkbuf_1 abstract view
.subckt sky130_fd_sc_hd__clkbuf_1 A VGND VNB VPB VPWR X
.ends

* Black-box entry subcircuit for sky130_fd_sc_hd__decap_8 abstract view
.subckt sky130_fd_sc_hd__decap_8 VGND VNB VPB VPWR
.ends

* Black-box entry subcircuit for sky130_fd_sc_hd__a21bo_4 abstract view
.subckt sky130_fd_sc_hd__a21bo_4 A1 A2 B1_N VGND VNB VPB VPWR X
.ends

* Black-box entry subcircuit for sky130_fd_sc_hd__a32o_4 abstract view
.subckt sky130_fd_sc_hd__a32o_4 A1 A2 A3 B1 B2 VGND VNB VPB VPWR X
.ends

* Black-box entry subcircuit for sky130_fd_sc_hd__and3_4 abstract view
.subckt sky130_fd_sc_hd__and3_4 A B C VGND VNB VPB VPWR X
.ends

* Black-box entry subcircuit for sky130_fd_sc_hd__decap_3 abstract view
.subckt sky130_fd_sc_hd__decap_3 VGND VNB VPB VPWR
.ends

* Black-box entry subcircuit for sky130_fd_sc_hd__or4_4 abstract view
.subckt sky130_fd_sc_hd__or4_4 A B C D VGND VNB VPB VPWR X
.ends

* Black-box entry subcircuit for sky130_fd_sc_hd__o21a_4 abstract view
.subckt sky130_fd_sc_hd__o21a_4 A1 A2 B1 VGND VNB VPB VPWR X
.ends

* Black-box entry subcircuit for sky130_fd_sc_hd__or3_4 abstract view
.subckt sky130_fd_sc_hd__or3_4 A B C VGND VNB VPB VPWR X
.ends

* Black-box entry subcircuit for sky130_fd_sc_hd__a21o_4 abstract view
.subckt sky130_fd_sc_hd__a21o_4 A1 A2 B1 VGND VNB VPB VPWR X
.ends

* Black-box entry subcircuit for sky130_fd_sc_hd__a211o_4 abstract view
.subckt sky130_fd_sc_hd__a211o_4 A1 A2 B1 C1 VGND VNB VPB VPWR X
.ends

* Black-box entry subcircuit for sky130_fd_sc_hd__a21oi_4 abstract view
.subckt sky130_fd_sc_hd__a21oi_4 A1 A2 B1 VGND VNB VPB VPWR Y
.ends

* Black-box entry subcircuit for sky130_fd_sc_hd__dfstp_4 abstract view
.subckt sky130_fd_sc_hd__dfstp_4 CLK D SET_B VGND VNB VPB VPWR Q
.ends

* Black-box entry subcircuit for sky130_fd_sc_hd__nand2_4 abstract view
.subckt sky130_fd_sc_hd__nand2_4 A B VGND VNB VPB VPWR Y
.ends

* Black-box entry subcircuit for sky130_fd_sc_hd__o21ai_4 abstract view
.subckt sky130_fd_sc_hd__o21ai_4 A1 A2 B1 VGND VNB VPB VPWR Y
.ends

* Black-box entry subcircuit for sky130_fd_sc_hd__a2111o_4 abstract view
.subckt sky130_fd_sc_hd__a2111o_4 A1 A2 B1 C1 D1 VGND VNB VPB VPWR X
.ends

* Black-box entry subcircuit for sky130_fd_sc_hd__a22oi_4 abstract view
.subckt sky130_fd_sc_hd__a22oi_4 A1 A2 B1 B2 VGND VNB VPB VPWR Y
.ends

* Black-box entry subcircuit for sky130_fd_sc_hd__nor2_4 abstract view
.subckt sky130_fd_sc_hd__nor2_4 A B VGND VNB VPB VPWR Y
.ends

* Black-box entry subcircuit for sky130_fd_sc_hd__and4_4 abstract view
.subckt sky130_fd_sc_hd__and4_4 A B C D VGND VNB VPB VPWR X
.ends

* Black-box entry subcircuit for sky130_fd_sc_hd__o32a_4 abstract view
.subckt sky130_fd_sc_hd__o32a_4 A1 A2 A3 B1 B2 VGND VNB VPB VPWR X
.ends

* Black-box entry subcircuit for sky130_fd_sc_hd__o41a_4 abstract view
.subckt sky130_fd_sc_hd__o41a_4 A1 A2 A3 A4 B1 VGND VNB VPB VPWR X
.ends

* Black-box entry subcircuit for sky130_fd_sc_hd__a21boi_4 abstract view
.subckt sky130_fd_sc_hd__a21boi_4 A1 A2 B1_N VGND VNB VPB VPWR Y
.ends

* Black-box entry subcircuit for sky130_fd_sc_hd__conb_1 abstract view
.subckt sky130_fd_sc_hd__conb_1 VGND VNB VPB VPWR HI LO
.ends

* Black-box entry subcircuit for sky130_fd_sc_hd__clkbuf_16 abstract view
.subckt sky130_fd_sc_hd__clkbuf_16 A VGND VNB VPB VPWR X
.ends

.subckt apb_sys_0 HADDR[0] HADDR[10] HADDR[11] HADDR[12] HADDR[13] HADDR[14] HADDR[15]
+ HADDR[16] HADDR[17] HADDR[18] HADDR[19] HADDR[1] HADDR[20] HADDR[21] HADDR[22] HADDR[23]
+ HADDR[24] HADDR[25] HADDR[26] HADDR[27] HADDR[28] HADDR[29] HADDR[2] HADDR[30] HADDR[31]
+ HADDR[3] HADDR[4] HADDR[5] HADDR[6] HADDR[7] HADDR[8] HADDR[9] HCLK HRDATA[0] HRDATA[10]
+ HRDATA[11] HRDATA[12] HRDATA[13] HRDATA[14] HRDATA[15] HRDATA[16] HRDATA[17] HRDATA[18]
+ HRDATA[19] HRDATA[1] HRDATA[20] HRDATA[21] HRDATA[22] HRDATA[23] HRDATA[24] HRDATA[25]
+ HRDATA[26] HRDATA[27] HRDATA[28] HRDATA[29] HRDATA[2] HRDATA[30] HRDATA[31] HRDATA[3]
+ HRDATA[4] HRDATA[5] HRDATA[6] HRDATA[7] HRDATA[8] HRDATA[9] HREADY HREADYOUT HRESETn
+ HSEL HTRANS[0] HTRANS[1] HWDATA[0] HWDATA[10] HWDATA[11] HWDATA[12] HWDATA[13] HWDATA[14]
+ HWDATA[15] HWDATA[16] HWDATA[17] HWDATA[18] HWDATA[19] HWDATA[1] HWDATA[20] HWDATA[21]
+ HWDATA[22] HWDATA[23] HWDATA[24] HWDATA[25] HWDATA[26] HWDATA[27] HWDATA[28] HWDATA[29]
+ HWDATA[2] HWDATA[30] HWDATA[31] HWDATA[3] HWDATA[4] HWDATA[5] HWDATA[6] HWDATA[7]
+ HWDATA[8] HWDATA[9] HWRITE IRQ[0] IRQ[10] IRQ[11] IRQ[12] IRQ[13] IRQ[14] IRQ[15]
+ IRQ[1] IRQ[2] IRQ[3] IRQ[4] IRQ[5] IRQ[6] IRQ[7] IRQ[8] IRQ[9] MSI_S2 MSI_S3 MSO_S2
+ MSO_S3 RsRx_S0 RsRx_S1 RsTx_S0 RsTx_S1 SCLK_S2 SCLK_S3 SSn_S2 SSn_S3 pwm_S6 pwm_S7
+ scl_i_S4 scl_i_S5 scl_o_S4 scl_o_S5 scl_oen_o_S4 scl_oen_o_S5 sda_i_S4 sda_i_S5
+ sda_o_S4 sda_o_S5 sda_oen_o_S4 sda_oen_o_S5 VPWR VGND
XANTENNA__18243__B1 _15752_/X VGND VGND VPWR VPWR sky130_fd_sc_hd__diode_2
X_18869_ _18868_/Y VGND VGND VPWR VPWR _18869_/X sky130_fd_sc_hd__buf_2
X_20900_ _20900_/A _20900_/B VGND VGND VPWR VPWR _20901_/A sky130_fd_sc_hd__or2_4
XANTENNA__13615__A _14645_/A VGND VGND VPWR VPWR sky130_fd_sc_hd__diode_2
X_21880_ _21245_/A VGND VGND VPWR VPWR _21886_/A sky130_fd_sc_hd__buf_2
XFILLER_55_759 VGND VGND VPWR VPWR sky130_fd_sc_hd__decap_4
X_20831_ _20830_/X VGND VGND VPWR VPWR _24032_/D sky130_fd_sc_hd__inv_2
XFILLER_36_962 VGND VGND VPWR VPWR sky130_fd_sc_hd__decap_12
XANTENNA__24992__RESET_B HRESETn VGND VGND VPWR VPWR sky130_fd_sc_hd__diode_2
XPHY_3109 VGND VPWR sky130_fd_sc_hd__tapvpwrvgnd_1
XANTENNA__22647__B _22644_/B VGND VGND VPWR VPWR sky130_fd_sc_hd__diode_2
X_20762_ _20761_/X VGND VGND VPWR VPWR _20767_/B sky130_fd_sc_hd__inv_2
XANTENNA__24921__RESET_B HRESETn VGND VGND VPWR VPWR sky130_fd_sc_hd__diode_2
XPHY_2408 VGND VPWR sky130_fd_sc_hd__tapvpwrvgnd_1
X_23550_ _23550_/CLK _19946_/X VGND VGND VPWR VPWR _19945_/A sky130_fd_sc_hd__dfxtp_4
XFILLER_35_494 VGND VGND VPWR VPWR sky130_fd_sc_hd__fill_1
XFILLER_22_111 VGND VGND VPWR VPWR sky130_fd_sc_hd__fill_1
XPHY_2419 VGND VPWR sky130_fd_sc_hd__tapvpwrvgnd_1
X_22501_ _12023_/Y _13533_/B _12092_/Y _12060_/B VGND VGND VPWR VPWR _22501_/X sky130_fd_sc_hd__o22a_4
XPHY_1707 VGND VPWR sky130_fd_sc_hd__tapvpwrvgnd_1
XFILLER_91_1350 VGND VGND VPWR VPWR sky130_fd_sc_hd__fill_1
XANTENNA__24239__RESET_B HRESETn VGND VGND VPWR VPWR sky130_fd_sc_hd__diode_2
X_23481_ _23496_/CLK _20136_/X VGND VGND VPWR VPWR _23481_/Q sky130_fd_sc_hd__dfxtp_4
X_20693_ _20692_/X VGND VGND VPWR VPWR _24000_/D sky130_fd_sc_hd__inv_2
XFILLER_50_464 VGND VGND VPWR VPWR sky130_fd_sc_hd__fill_1
XPHY_1718 VGND VPWR sky130_fd_sc_hd__tapvpwrvgnd_1
XPHY_1729 VGND VPWR sky130_fd_sc_hd__tapvpwrvgnd_1
XFILLER_91_1372 VGND VGND VPWR VPWR sky130_fd_sc_hd__fill_1
XANTENNA_clkbuf_5_13_0_HCLK_A clkbuf_4_6_0_HCLK/X VGND VGND VPWR VPWR sky130_fd_sc_hd__diode_2
X_22432_ _22714_/A _22430_/X _21438_/X _22431_/X VGND VGND VPWR VPWR _22433_/A sky130_fd_sc_hd__o22a_4
XFILLER_17_1454 VGND VGND VPWR VPWR sky130_fd_sc_hd__decap_12
X_25220_ _25043_/CLK _25220_/D HRESETn VGND VGND VPWR VPWR _25220_/Q sky130_fd_sc_hd__dfrtp_4
XANTENNA__16309__B1 _15952_/X VGND VGND VPWR VPWR sky130_fd_sc_hd__diode_2
XANTENNA__22645__A3 _22130_/C VGND VGND VPWR VPWR sky130_fd_sc_hd__diode_2
XFILLER_17_1487 VGND VGND VPWR VPWR sky130_fd_sc_hd__decap_6
X_22363_ _22070_/X _22363_/B VGND VGND VPWR VPWR _22363_/X sky130_fd_sc_hd__or2_4
XANTENNA__21853__A1 _24707_/Q VGND VGND VPWR VPWR sky130_fd_sc_hd__diode_2
XANTENNA__12594__B2 _24846_/Q VGND VGND VPWR VPWR sky130_fd_sc_hd__diode_2
X_25151_ _24109_/CLK _14347_/X HRESETn VGND VGND VPWR VPWR _25151_/Q sky130_fd_sc_hd__dfrtp_4
XFILLER_136_525 VGND VGND VPWR VPWR sky130_fd_sc_hd__fill_1
X_21314_ _21314_/A _21314_/B VGND VGND VPWR VPWR _21314_/X sky130_fd_sc_hd__or2_4
X_24102_ _24102_/CLK _12154_/X HRESETn VGND VGND VPWR VPWR _12152_/A sky130_fd_sc_hd__dfrtp_4
XANTENNA__21279__A _21859_/B VGND VGND VPWR VPWR sky130_fd_sc_hd__diode_2
X_25082_ _24376_/CLK _14585_/X HRESETn VGND VGND VPWR VPWR _14558_/A sky130_fd_sc_hd__dfrtp_4
X_22294_ _22294_/A _22927_/A VGND VGND VPWR VPWR _22297_/B sky130_fd_sc_hd__or2_4
XFILLER_50_1091 VGND VGND VPWR VPWR sky130_fd_sc_hd__decap_6
XANTENNA__17476__B _17449_/X VGND VGND VPWR VPWR sky130_fd_sc_hd__diode_2
X_24033_ _24033_/CLK _20835_/Y HRESETn VGND VGND VPWR VPWR _13656_/A sky130_fd_sc_hd__dfrtp_4
X_21245_ _21245_/A _20165_/Y VGND VGND VPWR VPWR _21245_/X sky130_fd_sc_hd__or2_4
XANTENNA__25098__RESET_B HRESETn VGND VGND VPWR VPWR sky130_fd_sc_hd__diode_2
X_21176_ _21184_/A _21176_/B VGND VGND VPWR VPWR _21176_/X sky130_fd_sc_hd__or2_4
XFILLER_132_764 VGND VGND VPWR VPWR sky130_fd_sc_hd__fill_1
XFILLER_131_263 VGND VGND VPWR VPWR sky130_fd_sc_hd__fill_1
XANTENNA__25027__RESET_B HRESETn VGND VGND VPWR VPWR sky130_fd_sc_hd__diode_2
X_20127_ _20127_/A VGND VGND VPWR VPWR _20140_/A sky130_fd_sc_hd__inv_2
XFILLER_137_1288 VGND VGND VPWR VPWR sky130_fd_sc_hd__fill_1
XFILLER_24_1436 VGND VGND VPWR VPWR sky130_fd_sc_hd__fill_2
XANTENNA__18234__B1 _15743_/X VGND VGND VPWR VPWR sky130_fd_sc_hd__diode_2
X_20058_ _20056_/Y _20057_/X _19794_/X _20057_/X VGND VGND VPWR VPWR _23511_/D sky130_fd_sc_hd__a2bb2o_4
X_24935_ _24248_/CLK _15493_/X HRESETn VGND VGND VPWR VPWR _12052_/A sky130_fd_sc_hd__dfrtp_4
XFILLER_24_1458 VGND VGND VPWR VPWR sky130_fd_sc_hd__decap_6
XANTENNA__14415__A1_N _14128_/Y VGND VGND VPWR VPWR sky130_fd_sc_hd__diode_2
X_11900_ _11900_/A _11871_/Y VGND VGND VPWR VPWR _11901_/A sky130_fd_sc_hd__and2_4
XANTENNA__22581__A2 _22578_/X VGND VGND VPWR VPWR sky130_fd_sc_hd__diode_2
X_12880_ _12880_/A _12880_/B VGND VGND VPWR VPWR _12881_/C sky130_fd_sc_hd__or2_4
XFILLER_73_534 VGND VGND VPWR VPWR sky130_fd_sc_hd__fill_1
X_24866_ _24847_/CLK _15727_/X HRESETn VGND VGND VPWR VPWR _12539_/A sky130_fd_sc_hd__dfrtp_4
XFILLER_22_1160 VGND VGND VPWR VPWR sky130_fd_sc_hd__decap_6
XANTENNA__22838__A _23021_/A VGND VGND VPWR VPWR sky130_fd_sc_hd__diode_2
Xclkbuf_8_128_0_HCLK clkbuf_7_64_0_HCLK/X VGND VGND VPWR VPWR _23718_/CLK sky130_fd_sc_hd__clkbuf_1
X_11831_ _11831_/A VGND VGND VPWR VPWR _11831_/Y sky130_fd_sc_hd__inv_2
XFILLER_61_707 VGND VGND VPWR VPWR sky130_fd_sc_hd__decap_8
XFILLER_27_962 VGND VGND VPWR VPWR sky130_fd_sc_hd__fill_1
X_23817_ _23832_/CLK _23817_/D VGND VGND VPWR VPWR _23817_/Q sky130_fd_sc_hd__dfxtp_4
XFILLER_96_1250 VGND VGND VPWR VPWR sky130_fd_sc_hd__decap_4
XPHY_3610 VGND VPWR sky130_fd_sc_hd__tapvpwrvgnd_1
X_24797_ _24832_/CLK _15875_/X HRESETn VGND VGND VPWR VPWR _24797_/Q sky130_fd_sc_hd__dfrtp_4
XANTENNA__16836__A _24412_/Q VGND VGND VPWR VPWR sky130_fd_sc_hd__diode_2
XPHY_3621 VGND VPWR sky130_fd_sc_hd__tapvpwrvgnd_1
XANTENNA__15740__A _15740_/A VGND VGND VPWR VPWR sky130_fd_sc_hd__diode_2
X_14550_ _25086_/Q _14066_/X _14060_/X VGND VGND VPWR VPWR _25086_/D sky130_fd_sc_hd__a21bo_4
XFILLER_54_792 VGND VGND VPWR VPWR sky130_fd_sc_hd__fill_1
XANTENNA__19212__A _16442_/A VGND VGND VPWR VPWR sky130_fd_sc_hd__diode_2
XANTENNA__24662__RESET_B HRESETn VGND VGND VPWR VPWR sky130_fd_sc_hd__diode_2
XPHY_3632 VGND VPWR sky130_fd_sc_hd__tapvpwrvgnd_1
X_11762_ _11759_/Y _11760_/X _11761_/X _11760_/X VGND VGND VPWR VPWR _11762_/X sky130_fd_sc_hd__a2bb2o_4
XANTENNA__16548__B1 _16285_/X VGND VGND VPWR VPWR sky130_fd_sc_hd__diode_2
XPHY_3643 VGND VPWR sky130_fd_sc_hd__tapvpwrvgnd_1
X_23748_ _23828_/CLK _23748_/D VGND VGND VPWR VPWR _17946_/B sky130_fd_sc_hd__dfxtp_4
XPHY_3654 VGND VPWR sky130_fd_sc_hd__tapvpwrvgnd_1
XFILLER_92_1147 VGND VGND VPWR VPWR sky130_fd_sc_hd__decap_12
XPHY_2920 VGND VPWR sky130_fd_sc_hd__tapvpwrvgnd_1
X_13501_ _13497_/Y VGND VGND VPWR VPWR _13501_/X sky130_fd_sc_hd__buf_2
XPHY_2931 VGND VPWR sky130_fd_sc_hd__tapvpwrvgnd_1
XPHY_2942 VGND VPWR sky130_fd_sc_hd__tapvpwrvgnd_1
X_14481_ _14481_/A VGND VGND VPWR VPWR _14481_/X sky130_fd_sc_hd__buf_2
X_11693_ _25270_/Q VGND VGND VPWR VPWR _13729_/A sky130_fd_sc_hd__inv_2
XPHY_2953 VGND VPWR sky130_fd_sc_hd__tapvpwrvgnd_1
X_23679_ _23398_/CLK _19575_/X VGND VGND VPWR VPWR _23679_/Q sky130_fd_sc_hd__dfxtp_4
XANTENNA__15220__B1 _15174_/X VGND VGND VPWR VPWR sky130_fd_sc_hd__diode_2
XPHY_2964 VGND VPWR sky130_fd_sc_hd__tapvpwrvgnd_1
X_16220_ _16219_/Y _16217_/X _15962_/X _16217_/X VGND VGND VPWR VPWR _16220_/X sky130_fd_sc_hd__a2bb2o_4
XPHY_2975 VGND VPWR sky130_fd_sc_hd__tapvpwrvgnd_1
X_13432_ _13196_/Y _13431_/X _25314_/Q _13195_/X VGND VGND VPWR VPWR _25314_/D sky130_fd_sc_hd__o22a_4
XPHY_2986 VGND VPWR sky130_fd_sc_hd__tapvpwrvgnd_1
X_25418_ _25411_/CLK _12632_/Y HRESETn VGND VGND VPWR VPWR _12592_/A sky130_fd_sc_hd__dfrtp_4
XPHY_2997 VGND VPWR sky130_fd_sc_hd__tapvpwrvgnd_1
X_16151_ _22183_/A VGND VGND VPWR VPWR _16151_/Y sky130_fd_sc_hd__inv_2
XFILLER_31_1429 VGND VGND VPWR VPWR sky130_fd_sc_hd__decap_4
XANTENNA__12585__B2 _12584_/Y VGND VGND VPWR VPWR sky130_fd_sc_hd__diode_2
X_13363_ _13395_/A _13363_/B VGND VGND VPWR VPWR _13363_/X sky130_fd_sc_hd__or2_4
XANTENNA__21844__B2 _17416_/A VGND VGND VPWR VPWR sky130_fd_sc_hd__diode_2
X_25349_ _23370_/CLK _13024_/X HRESETn VGND VGND VPWR VPWR _25349_/Q sky130_fd_sc_hd__dfrtp_4
X_15102_ _24591_/Q VGND VGND VPWR VPWR _15102_/Y sky130_fd_sc_hd__inv_2
X_12314_ _12314_/A VGND VGND VPWR VPWR _12988_/A sky130_fd_sc_hd__inv_2
X_16082_ _11739_/A _15668_/X _15927_/X _24700_/Q _16081_/X VGND VGND VPWR VPWR _24700_/D
+ sky130_fd_sc_hd__a32o_4
XFILLER_5_332 VGND VGND VPWR VPWR sky130_fd_sc_hd__decap_4
X_13294_ _13366_/A _13285_/X _13293_/X VGND VGND VPWR VPWR _13294_/X sky130_fd_sc_hd__and3_4
XFILLER_114_208 VGND VGND VPWR VPWR sky130_fd_sc_hd__decap_3
X_15033_ _15024_/X _15033_/B _15029_/X _15032_/X VGND VGND VPWR VPWR _15055_/A sky130_fd_sc_hd__or4_4
X_19910_ _19909_/X VGND VGND VPWR VPWR _19923_/A sky130_fd_sc_hd__inv_2
XANTENNA__15187__A _15187_/A VGND VGND VPWR VPWR sky130_fd_sc_hd__diode_2
X_12245_ _12244_/Y _24758_/Q _12244_/Y _24758_/Q VGND VGND VPWR VPWR _12245_/X sky130_fd_sc_hd__a2bb2o_4
XFILLER_68_1352 VGND VGND VPWR VPWR sky130_fd_sc_hd__fill_1
XFILLER_107_271 VGND VGND VPWR VPWR sky130_fd_sc_hd__decap_4
XANTENNA__12604__A _12604_/A VGND VGND VPWR VPWR sky130_fd_sc_hd__diode_2
XFILLER_123_753 VGND VGND VPWR VPWR sky130_fd_sc_hd__decap_8
XANTENNA__25450__RESET_B HRESETn VGND VGND VPWR VPWR sky130_fd_sc_hd__diode_2
X_12176_ _14329_/A _12173_/Y _11867_/X _12173_/Y VGND VGND VPWR VPWR _12176_/X sky130_fd_sc_hd__a2bb2o_4
X_19841_ _19841_/A VGND VGND VPWR VPWR _19841_/X sky130_fd_sc_hd__buf_2
XFILLER_123_764 VGND VGND VPWR VPWR sky130_fd_sc_hd__fill_1
XFILLER_96_626 VGND VGND VPWR VPWR sky130_fd_sc_hd__fill_1
XFILLER_3_34 VGND VGND VPWR VPWR sky130_fd_sc_hd__decap_12
XANTENNA__15915__A _25289_/Q VGND VGND VPWR VPWR sky130_fd_sc_hd__diode_2
X_16984_ _24712_/Q _16983_/A _16051_/Y _17038_/A VGND VGND VPWR VPWR _16989_/B sky130_fd_sc_hd__o22a_4
X_19772_ _19770_/Y _19766_/X _19771_/X _19751_/Y VGND VGND VPWR VPWR _19772_/X sky130_fd_sc_hd__a2bb2o_4
XFILLER_49_520 VGND VGND VPWR VPWR sky130_fd_sc_hd__decap_8
XFILLER_49_542 VGND VGND VPWR VPWR sky130_fd_sc_hd__fill_2
XANTENNA__12250__A1_N _12249_/X VGND VGND VPWR VPWR sky130_fd_sc_hd__diode_2
X_15935_ _15894_/A VGND VGND VPWR VPWR _15935_/X sky130_fd_sc_hd__buf_2
X_18723_ _18694_/X _18703_/X _18672_/Y VGND VGND VPWR VPWR _18724_/C sky130_fd_sc_hd__o21a_4
Xclkbuf_7_24_0_HCLK clkbuf_7_25_0_HCLK/A VGND VGND VPWR VPWR clkbuf_8_49_0_HCLK/A
+ sky130_fd_sc_hd__clkbuf_1
XANTENNA__13435__A _13233_/A VGND VGND VPWR VPWR sky130_fd_sc_hd__diode_2
XANTENNA__22572__A2 _22525_/X VGND VGND VPWR VPWR sky130_fd_sc_hd__diode_2
X_18654_ _24141_/Q VGND VGND VPWR VPWR _18654_/Y sky130_fd_sc_hd__inv_2
X_15866_ _15850_/X _15857_/X _15714_/X _24802_/Q _15864_/X VGND VGND VPWR VPWR _24802_/D
+ sky130_fd_sc_hd__a32o_4
Xclkbuf_7_87_0_HCLK clkbuf_7_87_0_HCLK/A VGND VGND VPWR VPWR clkbuf_7_87_0_HCLK/X
+ sky130_fd_sc_hd__clkbuf_1
XFILLER_37_759 VGND VGND VPWR VPWR sky130_fd_sc_hd__decap_4
XFILLER_18_940 VGND VGND VPWR VPWR sky130_fd_sc_hd__fill_1
X_14817_ _25039_/Q _14816_/X _14817_/C VGND VGND VPWR VPWR _14817_/X sky130_fd_sc_hd__or3_4
X_17605_ _17605_/A _17604_/Y VGND VGND VPWR VPWR _17607_/B sky130_fd_sc_hd__or2_4
XFILLER_40_1282 VGND VGND VPWR VPWR sky130_fd_sc_hd__decap_12
X_18585_ _18475_/C _18592_/A VGND VGND VPWR VPWR _18585_/X sky130_fd_sc_hd__or2_4
X_15797_ _15817_/A VGND VGND VPWR VPWR _15829_/A sky130_fd_sc_hd__inv_2
XFILLER_17_450 VGND VGND VPWR VPWR sky130_fd_sc_hd__fill_1
XFILLER_51_206 VGND VGND VPWR VPWR sky130_fd_sc_hd__decap_8
XANTENNA__12265__A1_N _12264_/X VGND VGND VPWR VPWR sky130_fd_sc_hd__diode_2
X_17536_ _11798_/Y _17565_/A _11798_/Y _17565_/A VGND VGND VPWR VPWR _17536_/X sky130_fd_sc_hd__a2bb2o_4
X_14748_ _14676_/A VGND VGND VPWR VPWR _14749_/A sky130_fd_sc_hd__buf_2
XFILLER_127_1413 VGND VGND VPWR VPWR sky130_fd_sc_hd__fill_1
XANTENNA__16566__A1_N _16565_/Y VGND VGND VPWR VPWR sky130_fd_sc_hd__diode_2
XANTENNA__23987__SET_B HRESETn VGND VGND VPWR VPWR sky130_fd_sc_hd__diode_2
XFILLER_60_740 VGND VGND VPWR VPWR sky130_fd_sc_hd__fill_2
XANTENNA__17200__B2 _17199_/Y VGND VGND VPWR VPWR sky130_fd_sc_hd__diode_2
XANTENNA__24332__RESET_B HRESETn VGND VGND VPWR VPWR sky130_fd_sc_hd__diode_2
X_17467_ _24194_/Q VGND VGND VPWR VPWR _17467_/Y sky130_fd_sc_hd__inv_2
X_14679_ _14679_/A VGND VGND VPWR VPWR _21371_/A sky130_fd_sc_hd__buf_2
XANTENNA__18961__A _16442_/A VGND VGND VPWR VPWR sky130_fd_sc_hd__diode_2
XFILLER_32_486 VGND VGND VPWR VPWR sky130_fd_sc_hd__fill_2
X_16418_ _24581_/Q VGND VGND VPWR VPWR _16418_/Y sky130_fd_sc_hd__inv_2
X_19206_ _16781_/X VGND VGND VPWR VPWR _19206_/X sky130_fd_sc_hd__buf_2
X_17398_ _23980_/Q _17398_/B VGND VGND VPWR VPWR _17399_/B sky130_fd_sc_hd__or2_4
XANTENNA__22483__A _22186_/A VGND VGND VPWR VPWR sky130_fd_sc_hd__diode_2
X_19137_ _19130_/A VGND VGND VPWR VPWR _19137_/X sky130_fd_sc_hd__buf_2
XFILLER_125_1181 VGND VGND VPWR VPWR sky130_fd_sc_hd__decap_8
XANTENNA__21835__A1 _21302_/X VGND VGND VPWR VPWR sky130_fd_sc_hd__diode_2
X_16349_ _22273_/A VGND VGND VPWR VPWR _16349_/Y sky130_fd_sc_hd__inv_2
XANTENNA__25538__RESET_B HRESETn VGND VGND VPWR VPWR sky130_fd_sc_hd__diode_2
X_19068_ _19062_/Y VGND VGND VPWR VPWR _19068_/X sky130_fd_sc_hd__buf_2
XANTENNA__23037__B1 _24865_/Q VGND VGND VPWR VPWR sky130_fd_sc_hd__diode_2
X_18019_ _18019_/A VGND VGND VPWR VPWR _18019_/X sky130_fd_sc_hd__buf_2
XFILLER_114_720 VGND VGND VPWR VPWR sky130_fd_sc_hd__fill_1
XFILLER_86_1463 VGND VGND VPWR VPWR sky130_fd_sc_hd__fill_1
XFILLER_99_420 VGND VGND VPWR VPWR sky130_fd_sc_hd__decap_8
XFILLER_114_731 VGND VGND VPWR VPWR sky130_fd_sc_hd__fill_1
XANTENNA__12514__A _12514_/A VGND VGND VPWR VPWR sky130_fd_sc_hd__diode_2
XFILLER_82_1305 VGND VGND VPWR VPWR sky130_fd_sc_hd__decap_6
X_21030_ _21030_/A VGND VGND VPWR VPWR _21030_/X sky130_fd_sc_hd__buf_2
XANTENNA__25191__RESET_B HRESETn VGND VGND VPWR VPWR sky130_fd_sc_hd__diode_2
XANTENNA__21827__A _22929_/A VGND VGND VPWR VPWR sky130_fd_sc_hd__diode_2
XFILLER_114_775 VGND VGND VPWR VPWR sky130_fd_sc_hd__fill_1
XFILLER_99_486 VGND VGND VPWR VPWR sky130_fd_sc_hd__decap_12
XFILLER_113_263 VGND VGND VPWR VPWR sky130_fd_sc_hd__decap_4
XFILLER_134_1439 VGND VGND VPWR VPWR sky130_fd_sc_hd__fill_1
XANTENNA__15760__A1_N _12536_/Y VGND VGND VPWR VPWR sky130_fd_sc_hd__diode_2
XANTENNA__16519__A1_N _16518_/Y VGND VGND VPWR VPWR sky130_fd_sc_hd__diode_2
XANTENNA__11839__B1 _11838_/X VGND VGND VPWR VPWR sky130_fd_sc_hd__diode_2
X_22981_ _12285_/C _22980_/X _16900_/A _22906_/X VGND VGND VPWR VPWR _22981_/X sky130_fd_sc_hd__a2bb2o_4
XFILLER_95_670 VGND VGND VPWR VPWR sky130_fd_sc_hd__decap_8
XFILLER_41_1046 VGND VGND VPWR VPWR sky130_fd_sc_hd__decap_4
XANTENNA__12500__A1 _12264_/X VGND VGND VPWR VPWR sky130_fd_sc_hd__diode_2
X_24720_ _24720_/CLK _16032_/X HRESETn VGND VGND VPWR VPWR _24720_/Q sky130_fd_sc_hd__dfrtp_4
X_21932_ _21927_/X _21931_/X _18298_/X VGND VGND VPWR VPWR _21932_/X sky130_fd_sc_hd__o21a_4
XFILLER_55_534 VGND VGND VPWR VPWR sky130_fd_sc_hd__decap_3
XANTENNA__21562__A _16453_/B VGND VGND VPWR VPWR sky130_fd_sc_hd__diode_2
X_24651_ _24162_/CLK _24651_/D HRESETn VGND VGND VPWR VPWR _22809_/A sky130_fd_sc_hd__dfrtp_4
X_21863_ _23034_/A VGND VGND VPWR VPWR _21863_/X sky130_fd_sc_hd__buf_2
XFILLER_103_68 VGND VGND VPWR VPWR sky130_fd_sc_hd__fill_1
XANTENNA__19716__B1 _19715_/X VGND VGND VPWR VPWR sky130_fd_sc_hd__diode_2
X_23602_ _23618_/CLK _19809_/X VGND VGND VPWR VPWR _19807_/A sky130_fd_sc_hd__dfxtp_4
X_20814_ _20863_/A VGND VGND VPWR VPWR _20814_/X sky130_fd_sc_hd__buf_2
X_21794_ _21460_/A _21792_/X _21794_/C VGND VGND VPWR VPWR _21794_/X sky130_fd_sc_hd__and3_4
XPHY_2205 VGND VPWR sky130_fd_sc_hd__tapvpwrvgnd_1
XPHY_905 VGND VPWR sky130_fd_sc_hd__tapvpwrvgnd_1
X_24582_ _24572_/CLK _16417_/X HRESETn VGND VGND VPWR VPWR _24582_/Q sky130_fd_sc_hd__dfrtp_4
XFILLER_93_1456 VGND VGND VPWR VPWR sky130_fd_sc_hd__decap_4
XPHY_2216 VGND VPWR sky130_fd_sc_hd__tapvpwrvgnd_1
XPHY_916 VGND VPWR sky130_fd_sc_hd__tapvpwrvgnd_1
XPHY_927 VGND VPWR sky130_fd_sc_hd__tapvpwrvgnd_1
XPHY_2227 VGND VPWR sky130_fd_sc_hd__tapvpwrvgnd_1
XPHY_938 VGND VPWR sky130_fd_sc_hd__tapvpwrvgnd_1
XANTENNA__24073__RESET_B HRESETn VGND VGND VPWR VPWR sky130_fd_sc_hd__diode_2
XPHY_2238 VGND VPWR sky130_fd_sc_hd__tapvpwrvgnd_1
XPHY_949 VGND VPWR sky130_fd_sc_hd__tapvpwrvgnd_1
X_23533_ _23533_/CLK _23533_/D VGND VGND VPWR VPWR _23533_/Q sky130_fd_sc_hd__dfxtp_4
X_20745_ _20772_/C VGND VGND VPWR VPWR _20745_/Y sky130_fd_sc_hd__inv_2
XPHY_2249 VGND VPWR sky130_fd_sc_hd__tapvpwrvgnd_1
XPHY_1504 VGND VPWR sky130_fd_sc_hd__tapvpwrvgnd_1
XPHY_1515 VGND VPWR sky130_fd_sc_hd__tapvpwrvgnd_1
XPHY_1526 VGND VPWR sky130_fd_sc_hd__tapvpwrvgnd_1
XPHY_1537 VGND VPWR sky130_fd_sc_hd__tapvpwrvgnd_1
XFILLER_10_114 VGND VGND VPWR VPWR sky130_fd_sc_hd__fill_1
XANTENNA__24002__RESET_B HRESETn VGND VGND VPWR VPWR sky130_fd_sc_hd__diode_2
X_20676_ _20724_/A VGND VGND VPWR VPWR _20676_/X sky130_fd_sc_hd__buf_2
XANTENNA__15753__A1 _15749_/X VGND VGND VPWR VPWR sky130_fd_sc_hd__diode_2
XANTENNA__23276__B1 _24733_/Q VGND VGND VPWR VPWR sky130_fd_sc_hd__diode_2
XPHY_1548 VGND VPWR sky130_fd_sc_hd__tapvpwrvgnd_1
X_23464_ _23496_/CLK _23464_/D VGND VGND VPWR VPWR _20179_/A sky130_fd_sc_hd__dfxtp_4
XANTENNA__22393__A _22523_/A VGND VGND VPWR VPWR sky130_fd_sc_hd__diode_2
XPHY_1559 VGND VPWR sky130_fd_sc_hd__tapvpwrvgnd_1
XFILLER_104_1221 VGND VGND VPWR VPWR sky130_fd_sc_hd__fill_1
X_25203_ _25199_/CLK _25203_/D HRESETn VGND VGND VPWR VPWR _14100_/A sky130_fd_sc_hd__dfrtp_4
X_22415_ _25362_/Q _22288_/X _22414_/X VGND VGND VPWR VPWR _22415_/X sky130_fd_sc_hd__a21o_4
X_23395_ _23580_/CLK _23395_/D VGND VGND VPWR VPWR _20358_/A sky130_fd_sc_hd__dfxtp_4
XANTENNA__25279__RESET_B HRESETn VGND VGND VPWR VPWR sky130_fd_sc_hd__diode_2
X_25134_ _23959_/CLK _14401_/X HRESETn VGND VGND VPWR VPWR _14399_/A sky130_fd_sc_hd__dfrtp_4
X_22346_ _21455_/A _22346_/B VGND VGND VPWR VPWR _22346_/X sky130_fd_sc_hd__or2_4
XANTENNA__13516__B1 _13515_/X VGND VGND VPWR VPWR sky130_fd_sc_hd__diode_2
XANTENNA__12319__B2 _12318_/Y VGND VGND VPWR VPWR sky130_fd_sc_hd__diode_2
XANTENNA__25208__RESET_B HRESETn VGND VGND VPWR VPWR sky130_fd_sc_hd__diode_2
X_22277_ _22962_/A VGND VGND VPWR VPWR _23281_/A sky130_fd_sc_hd__buf_2
XFILLER_124_539 VGND VGND VPWR VPWR sky130_fd_sc_hd__decap_8
X_25065_ _23826_/CLK _14642_/X HRESETn VGND VGND VPWR VPWR _13630_/A sky130_fd_sc_hd__dfrtp_4
X_12030_ _11989_/Y _12029_/X _25481_/Q _12029_/X VGND VGND VPWR VPWR _12030_/X sky130_fd_sc_hd__a2bb2o_4
X_21228_ _21377_/A VGND VGND VPWR VPWR _21250_/A sky130_fd_sc_hd__buf_2
X_24016_ _24018_/CLK _20765_/Y HRESETn VGND VGND VPWR VPWR _13119_/D sky130_fd_sc_hd__dfrtp_4
XFILLER_105_764 VGND VGND VPWR VPWR sky130_fd_sc_hd__fill_2
XFILLER_132_550 VGND VGND VPWR VPWR sky130_fd_sc_hd__decap_12
XFILLER_2_379 VGND VGND VPWR VPWR sky130_fd_sc_hd__decap_4
XFILLER_132_583 VGND VGND VPWR VPWR sky130_fd_sc_hd__fill_1
X_21159_ _21148_/X _21159_/B _21158_/X VGND VGND VPWR VPWR _21208_/C sky130_fd_sc_hd__and3_4
XFILLER_104_296 VGND VGND VPWR VPWR sky130_fd_sc_hd__decap_4
XFILLER_28_1380 VGND VGND VPWR VPWR sky130_fd_sc_hd__fill_1
XANTENNA__18655__A1_N _16613_/Y VGND VGND VPWR VPWR sky130_fd_sc_hd__diode_2
X_13981_ _14002_/A VGND VGND VPWR VPWR _13982_/A sky130_fd_sc_hd__buf_2
XFILLER_111_1203 VGND VGND VPWR VPWR sky130_fd_sc_hd__decap_3
XFILLER_101_981 VGND VGND VPWR VPWR sky130_fd_sc_hd__fill_1
X_15720_ _12582_/Y _15718_/X _11754_/X _15718_/X VGND VGND VPWR VPWR _24870_/D sky130_fd_sc_hd__a2bb2o_4
X_12932_ _12799_/X _12931_/X VGND VGND VPWR VPWR _12933_/A sky130_fd_sc_hd__or2_4
XFILLER_24_1277 VGND VGND VPWR VPWR sky130_fd_sc_hd__decap_4
X_24918_ _25433_/CLK _24918_/D HRESETn VGND VGND VPWR VPWR _11726_/B sky130_fd_sc_hd__dfrtp_4
XANTENNA__24843__RESET_B HRESETn VGND VGND VPWR VPWR sky130_fd_sc_hd__diode_2
XFILLER_100_491 VGND VGND VPWR VPWR sky130_fd_sc_hd__decap_4
XFILLER_73_342 VGND VGND VPWR VPWR sky130_fd_sc_hd__fill_2
X_15651_ _15643_/Y _15646_/X _15647_/X _21008_/B _15650_/X VGND VGND VPWR VPWR _24879_/D
+ sky130_fd_sc_hd__a32o_4
XFILLER_2_1040 VGND VGND VPWR VPWR sky130_fd_sc_hd__decap_8
X_12863_ _12855_/X _12862_/X VGND VGND VPWR VPWR _12863_/X sky130_fd_sc_hd__or2_4
X_24849_ _23370_/CLK _24849_/D HRESETn VGND VGND VPWR VPWR _12542_/A sky130_fd_sc_hd__dfrtp_4
X_14602_ _13769_/Y VGND VGND VPWR VPWR _14602_/X sky130_fd_sc_hd__buf_2
XANTENNA__22287__B _22286_/X VGND VGND VPWR VPWR sky130_fd_sc_hd__diode_2
X_11814_ _11811_/Y _11805_/X _11813_/X _11805_/X VGND VGND VPWR VPWR _11814_/X sky130_fd_sc_hd__a2bb2o_4
X_18370_ _18370_/A _18370_/B _14339_/A _12157_/X VGND VGND VPWR VPWR _18371_/A sky130_fd_sc_hd__or4_4
X_15582_ _15579_/Y _15575_/X _11771_/X _15581_/X VGND VGND VPWR VPWR _15582_/X sky130_fd_sc_hd__a2bb2o_4
X_12794_ _12810_/A _12792_/Y _12959_/A _24777_/Q VGND VGND VPWR VPWR _12804_/A sky130_fd_sc_hd__a2bb2o_4
XPHY_3440 VGND VPWR sky130_fd_sc_hd__tapvpwrvgnd_1
XPHY_3451 VGND VPWR sky130_fd_sc_hd__tapvpwrvgnd_1
X_17321_ _17203_/Y _17321_/B VGND VGND VPWR VPWR _17321_/X sky130_fd_sc_hd__or2_4
XFILLER_42_751 VGND VGND VPWR VPWR sky130_fd_sc_hd__fill_1
XFILLER_15_965 VGND VGND VPWR VPWR sky130_fd_sc_hd__fill_2
X_14533_ _23951_/Q _14532_/X _25101_/Q _14517_/A VGND VGND VPWR VPWR _14533_/X sky130_fd_sc_hd__o22a_4
XFILLER_42_762 VGND VGND VPWR VPWR sky130_fd_sc_hd__fill_1
XPHY_3462 VGND VPWR sky130_fd_sc_hd__tapvpwrvgnd_1
X_11745_ _25537_/Q VGND VGND VPWR VPWR _11745_/Y sky130_fd_sc_hd__inv_2
XPHY_3473 VGND VPWR sky130_fd_sc_hd__tapvpwrvgnd_1
XFILLER_53_72 VGND VGND VPWR VPWR sky130_fd_sc_hd__decap_12
XPHY_3484 VGND VPWR sky130_fd_sc_hd__tapvpwrvgnd_1
XPHY_3495 VGND VPWR sky130_fd_sc_hd__tapvpwrvgnd_1
XPHY_2750 VGND VPWR sky130_fd_sc_hd__tapvpwrvgnd_1
XFILLER_41_272 VGND VGND VPWR VPWR sky130_fd_sc_hd__decap_3
XPHY_2761 VGND VPWR sky130_fd_sc_hd__tapvpwrvgnd_1
X_17252_ _17252_/A _17252_/B _17252_/C _17220_/Y VGND VGND VPWR VPWR _17252_/X sky130_fd_sc_hd__or4_4
X_14464_ _14463_/Y _14459_/X _14403_/X _14459_/X VGND VGND VPWR VPWR _25112_/D sky130_fd_sc_hd__a2bb2o_4
XPHY_2772 VGND VPWR sky130_fd_sc_hd__tapvpwrvgnd_1
X_11676_ _25273_/Q VGND VGND VPWR VPWR _13685_/A sky130_fd_sc_hd__inv_2
XFILLER_30_968 VGND VGND VPWR VPWR sky130_fd_sc_hd__fill_1
XPHY_2783 VGND VPWR sky130_fd_sc_hd__tapvpwrvgnd_1
XPHY_2794 VGND VPWR sky130_fd_sc_hd__tapvpwrvgnd_1
X_16203_ _16202_/Y _16200_/X _11764_/X _16200_/X VGND VGND VPWR VPWR _24659_/D sky130_fd_sc_hd__a2bb2o_4
X_13415_ _13297_/X _13407_/X _13415_/C VGND VGND VPWR VPWR _13415_/X sky130_fd_sc_hd__and3_4
XFILLER_127_300 VGND VGND VPWR VPWR sky130_fd_sc_hd__fill_1
XANTENNA__21817__A1 _20329_/A VGND VGND VPWR VPWR sky130_fd_sc_hd__diode_2
X_17183_ _22860_/A _24346_/Q _16318_/Y _17254_/A VGND VGND VPWR VPWR _17183_/X sky130_fd_sc_hd__o22a_4
XFILLER_122_1343 VGND VGND VPWR VPWR sky130_fd_sc_hd__fill_2
X_14395_ _15986_/A VGND VGND VPWR VPWR _14395_/X sky130_fd_sc_hd__buf_2
X_16134_ _16133_/Y _16131_/X _11809_/X _16131_/X VGND VGND VPWR VPWR _24681_/D sky130_fd_sc_hd__a2bb2o_4
X_13346_ _13309_/A _13344_/X _13345_/X VGND VGND VPWR VPWR _13350_/B sky130_fd_sc_hd__and3_4