* NGSPICE file created from DMC_32x16HC.ext - technology: sky130A

* Black-box entry subcircuit for sky130_fd_sc_hd__ebufn_2 abstract view
.subckt sky130_fd_sc_hd__ebufn_2 A TE_B VGND VNB VPB VPWR Z
.ends

* Black-box entry subcircuit for sky130_fd_sc_hd__fill_1 abstract view
.subckt sky130_fd_sc_hd__fill_1 VGND VNB VPB VPWR
.ends

* Black-box entry subcircuit for sky130_fd_sc_hd__diode_2 abstract view
.subckt sky130_fd_sc_hd__diode_2 DIODE VGND VNB VPB VPWR
.ends

* Black-box entry subcircuit for sky130_fd_sc_hd__dfxtp_1 abstract view
.subckt sky130_fd_sc_hd__dfxtp_1 CLK D VGND VNB VPB VPWR Q
.ends

* Black-box entry subcircuit for sky130_fd_sc_hd__tapvpwrvgnd_1 abstract view
.subckt sky130_fd_sc_hd__tapvpwrvgnd_1 VGND VPWR
.ends

* Black-box entry subcircuit for sky130_fd_sc_hd__decap_6 abstract view
.subckt sky130_fd_sc_hd__decap_6 VGND VNB VPB VPWR
.ends

* Black-box entry subcircuit for sky130_fd_sc_hd__decap_4 abstract view
.subckt sky130_fd_sc_hd__decap_4 VGND VNB VPB VPWR
.ends

* Black-box entry subcircuit for sky130_fd_sc_hd__dlclkp_1 abstract view
.subckt sky130_fd_sc_hd__dlclkp_1 CLK GATE VGND VNB VPB VPWR GCLK
.ends

* Black-box entry subcircuit for sky130_fd_sc_hd__and2_1 abstract view
.subckt sky130_fd_sc_hd__and2_1 A B VGND VNB VPB VPWR X
.ends

* Black-box entry subcircuit for sky130_fd_sc_hd__decap_3 abstract view
.subckt sky130_fd_sc_hd__decap_3 VGND VNB VPB VPWR
.ends

* Black-box entry subcircuit for sky130_fd_sc_hd__fill_2 abstract view
.subckt sky130_fd_sc_hd__fill_2 VGND VNB VPB VPWR
.ends

* Black-box entry subcircuit for sky130_fd_sc_hd__decap_12 abstract view
.subckt sky130_fd_sc_hd__decap_12 VGND VNB VPB VPWR
.ends

* Black-box entry subcircuit for sky130_fd_sc_hd__decap_8 abstract view
.subckt sky130_fd_sc_hd__decap_8 VGND VNB VPB VPWR
.ends

* Black-box entry subcircuit for sky130_fd_sc_hd__and2_4 abstract view
.subckt sky130_fd_sc_hd__and2_4 A B VGND VNB VPB VPWR X
.ends

* Black-box entry subcircuit for sky130_fd_sc_hd__inv_2 abstract view
.subckt sky130_fd_sc_hd__inv_2 A VGND VNB VPB VPWR Y
.ends

* Black-box entry subcircuit for sky130_fd_sc_hd__clkbuf_2 abstract view
.subckt sky130_fd_sc_hd__clkbuf_2 A VGND VNB VPB VPWR X
.ends

* Black-box entry subcircuit for sky130_fd_sc_hd__clkbuf_4 abstract view
.subckt sky130_fd_sc_hd__clkbuf_4 A VGND VNB VPB VPWR X
.ends

* Black-box entry subcircuit for sky130_fd_sc_hd__and4b_4 abstract view
.subckt sky130_fd_sc_hd__and4b_4 A_N B C D VGND VNB VPB VPWR X
.ends

* Black-box entry subcircuit for sky130_fd_sc_hd__inv_8 abstract view
.subckt sky130_fd_sc_hd__inv_8 A VGND VNB VPB VPWR Y
.ends

* Black-box entry subcircuit for sky130_fd_sc_hd__dfrtp_1 abstract view
.subckt sky130_fd_sc_hd__dfrtp_1 CLK D RESET_B VGND VNB VPB VPWR Q
.ends

* Black-box entry subcircuit for sky130_fd_sc_hd__mux4_1 abstract view
.subckt sky130_fd_sc_hd__mux4_1 A0 A1 A2 A3 S0 S1 VGND VNB VPB VPWR X
.ends

* Black-box entry subcircuit for sky130_fd_sc_hd__and4bb_4 abstract view
.subckt sky130_fd_sc_hd__and4bb_4 A_N B_N C D VGND VNB VPB VPWR X
.ends

* Black-box entry subcircuit for sky130_fd_sc_hd__and4_4 abstract view
.subckt sky130_fd_sc_hd__and4_4 A B C D VGND VNB VPB VPWR X
.ends

* Black-box entry subcircuit for sky130_fd_sc_hd__a2bb2o_4 abstract view
.subckt sky130_fd_sc_hd__a2bb2o_4 A1_N A2_N B1 B2 VGND VNB VPB VPWR X
.ends

* Black-box entry subcircuit for sky130_fd_sc_hd__nor4b_4 abstract view
.subckt sky130_fd_sc_hd__nor4b_4 A B C D_N VGND VNB VPB VPWR Y
.ends

* Black-box entry subcircuit for sky130_fd_sc_hd__o22a_4 abstract view
.subckt sky130_fd_sc_hd__o22a_4 A1 A2 B1 B2 VGND VNB VPB VPWR X
.ends

* Black-box entry subcircuit for sky130_fd_sc_hd__conb_1 abstract view
.subckt sky130_fd_sc_hd__conb_1 VGND VNB VPB VPWR HI LO
.ends

* Black-box entry subcircuit for sky130_fd_sc_hd__nor2_2 abstract view
.subckt sky130_fd_sc_hd__nor2_2 A B VGND VNB VPB VPWR Y
.ends

* Black-box entry subcircuit for sky130_fd_sc_hd__a22oi_4 abstract view
.subckt sky130_fd_sc_hd__a22oi_4 A1 A2 B1 B2 VGND VNB VPB VPWR Y
.ends

* Black-box entry subcircuit for sky130_fd_sc_hd__and2b_2 abstract view
.subckt sky130_fd_sc_hd__and2b_2 A_N B VGND VNB VPB VPWR X
.ends

* Black-box entry subcircuit for sky130_fd_sc_hd__o21a_4 abstract view
.subckt sky130_fd_sc_hd__o21a_4 A1 A2 B1 VGND VNB VPB VPWR X
.ends

* Black-box entry subcircuit for sky130_fd_sc_hd__and2_2 abstract view
.subckt sky130_fd_sc_hd__and2_2 A B VGND VNB VPB VPWR X
.ends

* Black-box entry subcircuit for sky130_fd_sc_hd__or4_4 abstract view
.subckt sky130_fd_sc_hd__or4_4 A B C D VGND VNB VPB VPWR X
.ends

.subckt DMC_32x16HC A[0] A[10] A[11] A[12] A[13] A[14] A[15] A[16] A[17] A[18] A[19]
+ A[1] A[20] A[21] A[22] A[23] A[2] A[3] A[4] A[5] A[6] A[7] A[8] A[9] A_h[0] A_h[10]
+ A_h[11] A_h[12] A_h[13] A_h[14] A_h[15] A_h[16] A_h[17] A_h[18] A_h[19] A_h[1] A_h[20]
+ A_h[21] A_h[22] A_h[23] A_h[2] A_h[3] A_h[4] A_h[5] A_h[6] A_h[7] A_h[8] A_h[9]
+ Do[0] Do[10] Do[11] Do[12] Do[13] Do[14] Do[15] Do[16] Do[17] Do[18] Do[19] Do[1]
+ Do[20] Do[21] Do[22] Do[23] Do[24] Do[25] Do[26] Do[27] Do[28] Do[29] Do[2] Do[30]
+ Do[31] Do[3] Do[4] Do[5] Do[6] Do[7] Do[8] Do[9] clk hit line[0] line[100] line[101]
+ line[102] line[103] line[104] line[105] line[106] line[107] line[108] line[109]
+ line[10] line[110] line[111] line[112] line[113] line[114] line[115] line[116] line[117]
+ line[118] line[119] line[11] line[120] line[121] line[122] line[123] line[124] line[125]
+ line[126] line[127] line[12] line[13] line[14] line[15] line[16] line[17] line[18]
+ line[19] line[1] line[20] line[21] line[22] line[23] line[24] line[25] line[26]
+ line[27] line[28] line[29] line[2] line[30] line[31] line[32] line[33] line[34]
+ line[35] line[36] line[37] line[38] line[39] line[3] line[40] line[41] line[42]
+ line[43] line[44] line[45] line[46] line[47] line[48] line[49] line[4] line[50]
+ line[51] line[52] line[53] line[54] line[55] line[56] line[57] line[58] line[59]
+ line[5] line[60] line[61] line[62] line[63] line[64] line[65] line[66] line[67]
+ line[68] line[69] line[6] line[70] line[71] line[72] line[73] line[74] line[75]
+ line[76] line[77] line[78] line[79] line[7] line[80] line[81] line[82] line[83]
+ line[84] line[85] line[86] line[87] line[88] line[89] line[8] line[90] line[91]
+ line[92] line[93] line[94] line[95] line[96] line[97] line[98] line[99] line[9]
+ rst_n wr VPWR VGND
XOVHB\[16\].VALID\[10\].TOBUF OVHB\[16\].VALID\[10\].FF/Q OVHB\[16\].INV/Y VGND VGND
+ VPWR VPWR _04934_/B2 sky130_fd_sc_hd__ebufn_2
XFILLER_39_211 VGND VGND VPWR VPWR sky130_fd_sc_hd__fill_1
XANTENNA__09515__D line[37] VGND VGND VPWR VPWR sky130_fd_sc_hd__diode_2
X_05903_ _05902_/Q _05922_/Y VGND VGND VPWR VPWR _10943_/Z sky130_fd_sc_hd__ebufn_2
X_09671_ _09670_/Q _09702_/Y VGND VGND VPWR VPWR _05191_/Z sky130_fd_sc_hd__ebufn_2
X_06883_ _06882_/Q _06902_/Y VGND VGND VPWR VPWR _05203_/Z sky130_fd_sc_hd__ebufn_2
X_05834_ _05830_/CLK line[18] VGND VGND VPWR VPWR _05834_/Q sky130_fd_sc_hd__dfxtp_1
X_08622_ _08622_/CLK line[27] VGND VGND VPWR VPWR _08622_/Q sky130_fd_sc_hd__dfxtp_1
X_05765_ _05764_/Q _05782_/Y VGND VGND VPWR VPWR _13045_/Z sky130_fd_sc_hd__ebufn_2
XPHY_3109 VGND VPWR sky130_fd_sc_hd__tapvpwrvgnd_1
X_08553_ _08552_/Q _08582_/Y VGND VGND VPWR VPWR _05193_/Z sky130_fd_sc_hd__ebufn_2
XANTENNA__11780__D line[63] VGND VGND VPWR VPWR sky130_fd_sc_hd__diode_2
XANTENNA__06874__D line[124] VGND VGND VPWR VPWR sky130_fd_sc_hd__diode_2
X_07504_ _07506_/CLK line[28] VGND VGND VPWR VPWR _07505_/A sky130_fd_sc_hd__dfxtp_1
XPHY_2408 VGND VPWR sky130_fd_sc_hd__tapvpwrvgnd_1
X_08484_ _08488_/CLK line[92] VGND VGND VPWR VPWR _08484_/Q sky130_fd_sc_hd__dfxtp_1
X_05696_ _05688_/CLK line[83] VGND VGND VPWR VPWR _05696_/Q sky130_fd_sc_hd__dfxtp_1
XFILLER_35_494 VGND VGND VPWR VPWR sky130_fd_sc_hd__decap_6
XPHY_2419 VGND VPWR sky130_fd_sc_hd__tapvpwrvgnd_1
XANTENNA__09250__D line[58] VGND VGND VPWR VPWR sky130_fd_sc_hd__diode_2
XFILLER_39_1178 VGND VGND VPWR VPWR sky130_fd_sc_hd__fill_1
XFILLER_22_133 VGND VGND VPWR VPWR sky130_fd_sc_hd__decap_4
XANTENNA__10396__D line[56] VGND VGND VPWR VPWR sky130_fd_sc_hd__diode_2
XPHY_1707 VGND VPWR sky130_fd_sc_hd__tapvpwrvgnd_1
X_07435_ _07434_/Q _07462_/Y VGND VGND VPWR VPWR _10515_/Z sky130_fd_sc_hd__ebufn_2
XPHY_1718 VGND VPWR sky130_fd_sc_hd__tapvpwrvgnd_1
XPHY_1729 VGND VPWR sky130_fd_sc_hd__tapvpwrvgnd_1
X_07366_ _07368_/CLK line[93] VGND VGND VPWR VPWR _07366_/Q sky130_fd_sc_hd__dfxtp_1
XANTENNA_OVHB\[9\].VALID\[9\].FF_D A[18] VGND VGND VPWR VPWR sky130_fd_sc_hd__diode_2
XFILLER_109_717 VGND VGND VPWR VPWR sky130_fd_sc_hd__decap_4
X_06317_ _06317_/A _06342_/Y VGND VGND VPWR VPWR _05197_/Z sky130_fd_sc_hd__ebufn_2
X_09105_ _09105_/CLK _09106_/X VGND VGND VPWR VPWR _09103_/CLK sky130_fd_sc_hd__dlclkp_1
X_07297_ _07297_/A _07322_/Y VGND VGND VPWR VPWR _10937_/Z sky130_fd_sc_hd__ebufn_2
X_09036_ _09106_/A wr VGND VGND VPWR VPWR _09036_/X sky130_fd_sc_hd__and2_1
X_06248_ _06250_/CLK line[94] VGND VGND VPWR VPWR _06248_/Q sky130_fd_sc_hd__dfxtp_1
X_06179_ _06179_/A _06202_/Y VGND VGND VPWR VPWR _13179_/Z sky130_fd_sc_hd__ebufn_2
XANTENNA_DATA\[27\].CLKBUF\[2\]_A clk VGND VGND VPWR VPWR sky130_fd_sc_hd__diode_2
XANTENNA__11020__D line[85] VGND VGND VPWR VPWR sky130_fd_sc_hd__diode_2
XFILLER_105_956 VGND VGND VPWR VPWR sky130_fd_sc_hd__decap_4
XFILLER_132_731 VGND VGND VPWR VPWR sky130_fd_sc_hd__fill_1
XFILLER_132_742 VGND VGND VPWR VPWR sky130_fd_sc_hd__decap_3
XANTENNA__06114__D line[18] VGND VGND VPWR VPWR sky130_fd_sc_hd__diode_2
XANTENNA__11955__D line[15] VGND VGND VPWR VPWR sky130_fd_sc_hd__diode_2
XFILLER_131_274 VGND VGND VPWR VPWR sky130_fd_sc_hd__fill_1
XANTENNA__04929__A1_N A_h[12] VGND VGND VPWR VPWR sky130_fd_sc_hd__diode_2
XFILLER_89_188 VGND VGND VPWR VPWR sky130_fd_sc_hd__fill_2
X_09938_ _09937_/Q _09947_/Y VGND VGND VPWR VPWR _05178_/Z sky130_fd_sc_hd__ebufn_2
XANTENNA__06411__B wr VGND VGND VPWR VPWR sky130_fd_sc_hd__diode_2
XANTENNA__05953__D line[73] VGND VGND VPWR VPWR sky130_fd_sc_hd__diode_2
XANTENNA__09425__D line[10] VGND VGND VPWR VPWR sky130_fd_sc_hd__diode_2
XFILLER_133_32 VGND VGND VPWR VPWR sky130_fd_sc_hd__decap_12
XFILLER_86_873 VGND VGND VPWR VPWR sky130_fd_sc_hd__fill_2
X_09869_ _09855_/CLK line[71] VGND VGND VPWR VPWR _09869_/Q sky130_fd_sc_hd__dfxtp_1
X_11900_ _11900_/A _11907_/Y VGND VGND VPWR VPWR _11900_/Z sky130_fd_sc_hd__ebufn_2
XFILLER_2_1221 VGND VGND VPWR VPWR sky130_fd_sc_hd__decap_12
X_12880_ _12879_/Q _12887_/Y VGND VGND VPWR VPWR _12040_/Z sky130_fd_sc_hd__ebufn_2
XFILLER_73_545 VGND VGND VPWR VPWR sky130_fd_sc_hd__decap_3
X_11831_ _11807_/CLK line[72] VGND VGND VPWR VPWR _11831_/Q sky130_fd_sc_hd__dfxtp_1
X_11762_ _11761_/Q _11767_/Y VGND VGND VPWR VPWR _13162_/Z sky130_fd_sc_hd__ebufn_2
XFILLER_53_280 VGND VGND VPWR VPWR sky130_fd_sc_hd__fill_1
XPHY_2920 VGND VPWR sky130_fd_sc_hd__tapvpwrvgnd_1
XFILLER_92_1158 VGND VGND VPWR VPWR sky130_fd_sc_hd__fill_1
XPHY_2931 VGND VPWR sky130_fd_sc_hd__tapvpwrvgnd_1
X_13501_ _13489_/CLK line[67] VGND VGND VPWR VPWR _13501_/Q sky130_fd_sc_hd__dfxtp_1
XPHY_2942 VGND VPWR sky130_fd_sc_hd__tapvpwrvgnd_1
X_10713_ _10687_/CLK line[73] VGND VGND VPWR VPWR _10713_/Q sky130_fd_sc_hd__dfxtp_1
XANTENNA_OVHB\[9\].VALID\[11\].FF_D A[20] VGND VGND VPWR VPWR sky130_fd_sc_hd__diode_2
XFILLER_14_689 VGND VGND VPWR VPWR sky130_fd_sc_hd__decap_3
XPHY_2953 VGND VPWR sky130_fd_sc_hd__tapvpwrvgnd_1
X_11693_ _11691_/CLK line[9] VGND VGND VPWR VPWR _11693_/Q sky130_fd_sc_hd__dfxtp_1
XFILLER_13_166 VGND VGND VPWR VPWR sky130_fd_sc_hd__fill_1
XPHY_2964 VGND VPWR sky130_fd_sc_hd__tapvpwrvgnd_1
XPHY_2975 VGND VPWR sky130_fd_sc_hd__tapvpwrvgnd_1
XPHY_2986 VGND VPWR sky130_fd_sc_hd__tapvpwrvgnd_1
X_13432_ _13431_/Q _13447_/Y VGND VGND VPWR VPWR _13152_/Z sky130_fd_sc_hd__ebufn_2
XPHY_2997 VGND VPWR sky130_fd_sc_hd__tapvpwrvgnd_1
X_10644_ _10644_/A _10647_/Y VGND VGND VPWR VPWR _13164_/Z sky130_fd_sc_hd__ebufn_2
XFILLER_42_95 VGND VGND VPWR VPWR sky130_fd_sc_hd__fill_2
X_13363_ _13373_/CLK line[4] VGND VGND VPWR VPWR _13364_/A sky130_fd_sc_hd__dfxtp_1
X_10575_ _10575_/CLK _10576_/X VGND VGND VPWR VPWR _10549_/CLK sky130_fd_sc_hd__dlclkp_1
XFILLER_127_547 VGND VGND VPWR VPWR sky130_fd_sc_hd__decap_8
X_12314_ _12313_/Q _12327_/Y VGND VGND VPWR VPWR _13154_/Z sky130_fd_sc_hd__ebufn_2
XANTENNA__08504__D line[87] VGND VGND VPWR VPWR sky130_fd_sc_hd__diode_2
X_13294_ _13294_/A _13307_/Y VGND VGND VPWR VPWR _11894_/Z sky130_fd_sc_hd__ebufn_2
X_12245_ _12245_/CLK line[5] VGND VGND VPWR VPWR _12246_/A sky130_fd_sc_hd__dfxtp_1
XFILLER_5_398 VGND VGND VPWR VPWR sky130_fd_sc_hd__decap_12
X_12176_ _12175_/Q _12187_/Y VGND VGND VPWR VPWR _05176_/Z sky130_fd_sc_hd__ebufn_2
XANTENNA_DOBUF\[31\]_A DOBUF\[31\]/A VGND VGND VPWR VPWR sky130_fd_sc_hd__diode_2
XFILLER_68_306 VGND VGND VPWR VPWR sky130_fd_sc_hd__decap_6
XFILLER_111_915 VGND VGND VPWR VPWR sky130_fd_sc_hd__fill_1
XFILLER_3_56 VGND VGND VPWR VPWR sky130_fd_sc_hd__decap_12
XANTENNA_DATA\[0\].CLKBUF\[1\]_A clk VGND VGND VPWR VPWR sky130_fd_sc_hd__diode_2
X_11127_ _11127_/CLK line[6] VGND VGND VPWR VPWR _11128_/A sky130_fd_sc_hd__dfxtp_1
XFILLER_111_959 VGND VGND VPWR VPWR sky130_fd_sc_hd__fill_1
XANTENNA__05863__D line[46] VGND VGND VPWR VPWR sky130_fd_sc_hd__diode_2
XFILLER_1_593 VGND VGND VPWR VPWR sky130_fd_sc_hd__decap_12
X_11058_ _11057_/Q _11067_/Y VGND VGND VPWR VPWR _05178_/Z sky130_fd_sc_hd__ebufn_2
XFILLER_3_1029 VGND VGND VPWR VPWR sky130_fd_sc_hd__decap_12
X_10009_ _10011_/CLK line[7] VGND VGND VPWR VPWR _10009_/Q sky130_fd_sc_hd__dfxtp_1
XFILLER_91_320 VGND VGND VPWR VPWR sky130_fd_sc_hd__fill_2
XANTENNA__12696__D line[83] VGND VGND VPWR VPWR sky130_fd_sc_hd__diode_2
XOVHB\[22\].CGAND _13923_/X wr VGND VGND VPWR VPWR OVHB\[22\].CGAND/X sky130_fd_sc_hd__and2_4
XFILLER_18_995 VGND VGND VPWR VPWR sky130_fd_sc_hd__fill_1
X_05550_ _05568_/CLK line[31] VGND VGND VPWR VPWR _05550_/Q sky130_fd_sc_hd__dfxtp_1
XFILLER_83_91 VGND VGND VPWR VPWR sky130_fd_sc_hd__fill_1
X_05481_ _05481_/A _05502_/Y VGND VGND VPWR VPWR _11081_/Z sky130_fd_sc_hd__ebufn_2
XANTENNA__11105__D line[10] VGND VGND VPWR VPWR sky130_fd_sc_hd__diode_2
X_07220_ _07228_/CLK line[26] VGND VGND VPWR VPWR _07220_/Q sky130_fd_sc_hd__dfxtp_1
XFILLER_125_1170 VGND VGND VPWR VPWR sky130_fd_sc_hd__fill_1
XANTENNA__05103__D line[68] VGND VGND VPWR VPWR sky130_fd_sc_hd__diode_2
XFILLER_9_660 VGND VGND VPWR VPWR sky130_fd_sc_hd__decap_4
X_07151_ _07150_/Q _07182_/Y VGND VGND VPWR VPWR _05191_/Z sky130_fd_sc_hd__ebufn_2
XANTENNA__10944__D line[50] VGND VGND VPWR VPWR sky130_fd_sc_hd__diode_2
XANTENNA__13320__D line[127] VGND VGND VPWR VPWR sky130_fd_sc_hd__diode_2
X_06102_ _06110_/CLK line[27] VGND VGND VPWR VPWR _06102_/Q sky130_fd_sc_hd__dfxtp_1
XANTENNA__08414__D line[60] VGND VGND VPWR VPWR sky130_fd_sc_hd__diode_2
X_07082_ _07088_/CLK line[91] VGND VGND VPWR VPWR _07082_/Q sky130_fd_sc_hd__dfxtp_1
XFILLER_105_208 VGND VGND VPWR VPWR sky130_fd_sc_hd__decap_6
X_06033_ _06032_/Q _06062_/Y VGND VGND VPWR VPWR _05193_/Z sky130_fd_sc_hd__ebufn_2
XFILLER_133_539 VGND VGND VPWR VPWR sky130_fd_sc_hd__fill_1
XOVHB\[18\].VALID\[4\].TOBUF OVHB\[18\].VALID\[4\].FF/Q OVHB\[18\].INV/Y VGND VGND
+ VPWR VPWR _04939_/B2 sky130_fd_sc_hd__ebufn_2
XANTENNA_MUX.MUX\[1\]_S1 A[3] VGND VGND VPWR VPWR sky130_fd_sc_hd__diode_2
XFILLER_126_591 VGND VGND VPWR VPWR sky130_fd_sc_hd__fill_1
XFILLER_102_904 VGND VGND VPWR VPWR sky130_fd_sc_hd__fill_2
XANTENNA_DOBUF\[22\]_A DOBUF\[22\]/A VGND VGND VPWR VPWR sky130_fd_sc_hd__diode_2
XFILLER_113_274 VGND VGND VPWR VPWR sky130_fd_sc_hd__fill_1
XFILLER_87_648 VGND VGND VPWR VPWR sky130_fd_sc_hd__fill_1
X_07984_ _07983_/Q _07987_/Y VGND VGND VPWR VPWR _12744_/Z sky130_fd_sc_hd__ebufn_2
XFILLER_68_851 VGND VGND VPWR VPWR sky130_fd_sc_hd__decap_3
X_09723_ _09707_/CLK line[4] VGND VGND VPWR VPWR _09724_/A sky130_fd_sc_hd__dfxtp_1
X_06935_ _06935_/CLK _06936_/X VGND VGND VPWR VPWR _06909_/CLK sky130_fd_sc_hd__dlclkp_1
XFILLER_41_1046 VGND VGND VPWR VPWR sky130_fd_sc_hd__fill_1
XFILLER_27_203 VGND VGND VPWR VPWR sky130_fd_sc_hd__fill_1
X_09654_ _09653_/Q _09667_/Y VGND VGND VPWR VPWR _11894_/Z sky130_fd_sc_hd__ebufn_2
XFILLER_67_394 VGND VGND VPWR VPWR sky130_fd_sc_hd__decap_3
XFILLER_83_843 VGND VGND VPWR VPWR sky130_fd_sc_hd__fill_1
X_06866_ _06866_/A wr VGND VGND VPWR VPWR _06866_/X sky130_fd_sc_hd__and2_1
X_08605_ _08589_/CLK line[5] VGND VGND VPWR VPWR _08605_/Q sky130_fd_sc_hd__dfxtp_1
X_05817_ _05992_/A VGND VGND VPWR VPWR _05817_/Y sky130_fd_sc_hd__inv_2
X_09585_ _09585_/CLK line[69] VGND VGND VPWR VPWR _09586_/A sky130_fd_sc_hd__dfxtp_1
X_06797_ _06867_/A VGND VGND VPWR VPWR _06797_/Y sky130_fd_sc_hd__inv_2
X_05748_ _05758_/CLK line[112] VGND VGND VPWR VPWR _05749_/A sky130_fd_sc_hd__dfxtp_1
XFILLER_36_792 VGND VGND VPWR VPWR sky130_fd_sc_hd__fill_1
X_08536_ _08536_/A _08547_/Y VGND VGND VPWR VPWR _05176_/Z sky130_fd_sc_hd__ebufn_2
XPHY_2205 VGND VPWR sky130_fd_sc_hd__tapvpwrvgnd_1
XPHY_905 VGND VPWR sky130_fd_sc_hd__tapvpwrvgnd_1
XPHY_2216 VGND VPWR sky130_fd_sc_hd__tapvpwrvgnd_1
XPHY_916 VGND VPWR sky130_fd_sc_hd__tapvpwrvgnd_1
XPHY_927 VGND VPWR sky130_fd_sc_hd__tapvpwrvgnd_1
XPHY_2227 VGND VPWR sky130_fd_sc_hd__tapvpwrvgnd_1
XPHY_938 VGND VPWR sky130_fd_sc_hd__tapvpwrvgnd_1
XPHY_2238 VGND VPWR sky130_fd_sc_hd__tapvpwrvgnd_1
XPHY_949 VGND VPWR sky130_fd_sc_hd__tapvpwrvgnd_1
X_05679_ _05678_/Q _05712_/Y VGND VGND VPWR VPWR _12679_/Z sky130_fd_sc_hd__ebufn_2
XPHY_2249 VGND VPWR sky130_fd_sc_hd__tapvpwrvgnd_1
XPHY_1504 VGND VPWR sky130_fd_sc_hd__tapvpwrvgnd_1
X_08467_ _08467_/CLK line[70] VGND VGND VPWR VPWR _08468_/A sky130_fd_sc_hd__dfxtp_1
XPHY_1515 VGND VPWR sky130_fd_sc_hd__tapvpwrvgnd_1
XPHY_1526 VGND VPWR sky130_fd_sc_hd__tapvpwrvgnd_1
XPHY_1537 VGND VPWR sky130_fd_sc_hd__tapvpwrvgnd_1
X_07418_ _07417_/Q _07427_/Y VGND VGND VPWR VPWR _05178_/Z sky130_fd_sc_hd__ebufn_2
XPHY_1548 VGND VPWR sky130_fd_sc_hd__tapvpwrvgnd_1
X_08398_ _08397_/Q _08407_/Y VGND VGND VPWR VPWR _13158_/Z sky130_fd_sc_hd__ebufn_2
XFILLER_91_1191 VGND VGND VPWR VPWR sky130_fd_sc_hd__decap_8
XANTENNA__05013__D line[32] VGND VGND VPWR VPWR sky130_fd_sc_hd__diode_2
XPHY_1559 VGND VPWR sky130_fd_sc_hd__tapvpwrvgnd_1
XFILLER_137_823 VGND VGND VPWR VPWR sky130_fd_sc_hd__fill_1
X_07349_ _07327_/CLK line[71] VGND VGND VPWR VPWR _07349_/Q sky130_fd_sc_hd__dfxtp_1
XOVHB\[9\].VALID\[9\].FF OVHB\[9\].V/CLK A[18] VGND VGND VPWR VPWR OVHB\[9\].VALID\[9\].FF/Q
+ sky130_fd_sc_hd__dfxtp_1
XFILLER_52_1186 VGND VGND VPWR VPWR sky130_fd_sc_hd__decap_8
XFILLER_104_1276 VGND VGND VPWR VPWR sky130_fd_sc_hd__fill_1
X_10360_ _10359_/Q _10367_/Y VGND VGND VPWR VPWR _12040_/Z sky130_fd_sc_hd__ebufn_2
XFILLER_12_98 VGND VGND VPWR VPWR sky130_fd_sc_hd__fill_1
XFILLER_3_825 VGND VGND VPWR VPWR sky130_fd_sc_hd__decap_12
X_09019_ _09027_/CLK line[66] VGND VGND VPWR VPWR _09019_/Q sky130_fd_sc_hd__dfxtp_1
X_10291_ _10273_/CLK line[8] VGND VGND VPWR VPWR _10291_/Q sky130_fd_sc_hd__dfxtp_1
X_12030_ _12029_/Q _12047_/Y VGND VGND VPWR VPWR _12590_/Z sky130_fd_sc_hd__ebufn_2
XANTENNA_DOBUF\[13\]_A DOBUF\[13\]/A VGND VGND VPWR VPWR sky130_fd_sc_hd__diode_2
XANTENNA__11685__D line[5] VGND VGND VPWR VPWR sky130_fd_sc_hd__diode_2
XFILLER_2_379 VGND VGND VPWR VPWR sky130_fd_sc_hd__decap_12
XANTENNA__06779__D line[66] VGND VGND VPWR VPWR sky130_fd_sc_hd__diode_2
XANTENNA__09155__D line[15] VGND VGND VPWR VPWR sky130_fd_sc_hd__diode_2
X_13981_ A_h[5] VGND VGND VPWR VPWR _13990_/B sky130_fd_sc_hd__clkbuf_2
XANTENNA_MUX.MUX\[9\]_A0 _04974_/Z VGND VGND VPWR VPWR sky130_fd_sc_hd__diode_2
XANTENNA_DATA\[25\].CLKBUF\[4\]_A clk VGND VGND VPWR VPWR sky130_fd_sc_hd__diode_2
XANTENNA__08994__D line[55] VGND VGND VPWR VPWR sky130_fd_sc_hd__diode_2
X_12932_ _12931_/Q _12957_/Y VGND VGND VPWR VPWR _09292_/Z sky130_fd_sc_hd__ebufn_2
XDATA\[7\].SELRBUF _13946_/X VGND VGND VPWR VPWR _13307_/A sky130_fd_sc_hd__clkbuf_4
XFILLER_111_1236 VGND VGND VPWR VPWR sky130_fd_sc_hd__decap_6
XOVHB\[24\].VALID\[3\].TOBUF OVHB\[24\].VALID\[3\].FF/Q OVHB\[24\].INV/Y VGND VGND
+ VPWR VPWR _04927_/A sky130_fd_sc_hd__ebufn_2
XFILLER_85_191 VGND VGND VPWR VPWR sky130_fd_sc_hd__fill_1
X_12863_ _12877_/CLK line[46] VGND VGND VPWR VPWR _12863_/Q sky130_fd_sc_hd__dfxtp_1
XFILLER_2_1062 VGND VGND VPWR VPWR sky130_fd_sc_hd__decap_3
XANTENNA_OVHB\[21\].VALID\[1\].FF_D A[10] VGND VGND VPWR VPWR sky130_fd_sc_hd__diode_2
X_11814_ _11814_/A _11837_/Y VGND VGND VPWR VPWR _09294_/Z sky130_fd_sc_hd__ebufn_2
XFILLER_96_1091 VGND VGND VPWR VPWR sky130_fd_sc_hd__decap_6
X_12794_ _12793_/Q _12817_/Y VGND VGND VPWR VPWR _04954_/Z sky130_fd_sc_hd__ebufn_2
XANTENNA__07403__D line[110] VGND VGND VPWR VPWR sky130_fd_sc_hd__diode_2
X_11745_ _11761_/CLK line[47] VGND VGND VPWR VPWR _11746_/A sky130_fd_sc_hd__dfxtp_1
XPHY_2750 VGND VPWR sky130_fd_sc_hd__tapvpwrvgnd_1
XPHY_2761 VGND VPWR sky130_fd_sc_hd__tapvpwrvgnd_1
XANTENNA__06019__D line[103] VGND VGND VPWR VPWR sky130_fd_sc_hd__diode_2
XPHY_2772 VGND VPWR sky130_fd_sc_hd__tapvpwrvgnd_1
XPHY_2783 VGND VPWR sky130_fd_sc_hd__tapvpwrvgnd_1
X_11676_ _11676_/A _11697_/Y VGND VGND VPWR VPWR _04956_/Z sky130_fd_sc_hd__ebufn_2
XPHY_2794 VGND VPWR sky130_fd_sc_hd__tapvpwrvgnd_1
XANTENNA__05501__A _05466_/A VGND VGND VPWR VPWR sky130_fd_sc_hd__diode_2
X_13415_ _13423_/CLK line[42] VGND VGND VPWR VPWR _13416_/A sky130_fd_sc_hd__dfxtp_1
XANTENNA_OVHB\[14\].VALID\[5\].FF_D A[14] VGND VGND VPWR VPWR sky130_fd_sc_hd__diode_2
X_10627_ _10623_/CLK line[33] VGND VGND VPWR VPWR _10627_/Q sky130_fd_sc_hd__dfxtp_1
XFILLER_31_1248 VGND VGND VPWR VPWR sky130_fd_sc_hd__fill_1
XFILLER_10_692 VGND VGND VPWR VPWR sky130_fd_sc_hd__fill_2
X_13346_ _13346_/A _13377_/Y VGND VGND VPWR VPWR _04946_/Z sky130_fd_sc_hd__ebufn_2
X_10558_ _10557_/Q _10577_/Y VGND VGND VPWR VPWR _04958_/Z sky130_fd_sc_hd__ebufn_2
X_13277_ _13297_/CLK line[107] VGND VGND VPWR VPWR _13277_/Q sky130_fd_sc_hd__dfxtp_1
X_10489_ _10481_/CLK line[98] VGND VGND VPWR VPWR _10489_/Q sky130_fd_sc_hd__dfxtp_1
XANTENNA_MUX.MUX\[24\]_A3 _05217_/Z VGND VGND VPWR VPWR sky130_fd_sc_hd__diode_2
X_12228_ _12228_/A _12257_/Y VGND VGND VPWR VPWR _11668_/Z sky130_fd_sc_hd__ebufn_2
XFILLER_64_1035 VGND VGND VPWR VPWR sky130_fd_sc_hd__fill_2
XFILLER_111_701 VGND VGND VPWR VPWR sky130_fd_sc_hd__fill_1
XANTENNA__11595__D line[106] VGND VGND VPWR VPWR sky130_fd_sc_hd__diode_2
XFILLER_78_80 VGND VGND VPWR VPWR sky130_fd_sc_hd__decap_4
XFILLER_25_1019 VGND VGND VPWR VPWR sky130_fd_sc_hd__decap_12
X_12159_ _12155_/CLK line[108] VGND VGND VPWR VPWR _12159_/Q sky130_fd_sc_hd__dfxtp_1
XANTENNA__05593__D line[36] VGND VGND VPWR VPWR sky130_fd_sc_hd__diode_2
XFILLER_99_1109 VGND VGND VPWR VPWR sky130_fd_sc_hd__fill_1
X_04981_ _04980_/Q _05012_/Y VGND VGND VPWR VPWR _12541_/Z sky130_fd_sc_hd__ebufn_2
XFILLER_110_288 VGND VGND VPWR VPWR sky130_fd_sc_hd__fill_1
XFILLER_77_692 VGND VGND VPWR VPWR sky130_fd_sc_hd__decap_8
X_06720_ _06719_/Q _06727_/Y VGND VGND VPWR VPWR _12040_/Z sky130_fd_sc_hd__ebufn_2
X_06651_ _06649_/CLK line[8] VGND VGND VPWR VPWR _06651_/Q sky130_fd_sc_hd__dfxtp_1
XFILLER_80_813 VGND VGND VPWR VPWR sky130_fd_sc_hd__decap_8
X_05602_ _05601_/Q _05607_/Y VGND VGND VPWR VPWR _13162_/Z sky130_fd_sc_hd__ebufn_2
X_06582_ _06581_/Q _06587_/Y VGND VGND VPWR VPWR _13022_/Z sky130_fd_sc_hd__ebufn_2
X_09370_ _09369_/Q _09387_/Y VGND VGND VPWR VPWR _05170_/Z sky130_fd_sc_hd__ebufn_2
XOVHB\[16\].VALID\[9\].TOBUF OVHB\[16\].VALID\[9\].FF/Q OVHB\[16\].INV/Y VGND VGND
+ VPWR VPWR _04916_/A2 sky130_fd_sc_hd__ebufn_2
XFILLER_17_280 VGND VGND VPWR VPWR sky130_fd_sc_hd__fill_1
X_05533_ _05515_/CLK line[9] VGND VGND VPWR VPWR _05534_/A sky130_fd_sc_hd__dfxtp_1
X_08321_ _08327_/CLK line[3] VGND VGND VPWR VPWR _08321_/Q sky130_fd_sc_hd__dfxtp_1
XFILLER_36_1126 VGND VGND VPWR VPWR sky130_fd_sc_hd__decap_4
XFILLER_20_401 VGND VGND VPWR VPWR sky130_fd_sc_hd__fill_1
XFILLER_60_581 VGND VGND VPWR VPWR sky130_fd_sc_hd__decap_4
X_08252_ _08251_/Q _08267_/Y VGND VGND VPWR VPWR _11612_/Z sky130_fd_sc_hd__ebufn_2
X_05464_ _05464_/A _05467_/Y VGND VGND VPWR VPWR _12744_/Z sky130_fd_sc_hd__ebufn_2
XOVHB\[30\].VALID\[2\].TOBUF OVHB\[30\].VALID\[2\].FF/Q OVHB\[30\].INV/Y VGND VGND
+ VPWR VPWR _04932_/B2 sky130_fd_sc_hd__ebufn_2
X_07203_ _07209_/CLK line[4] VGND VGND VPWR VPWR _07203_/Q sky130_fd_sc_hd__dfxtp_1
XANTENNA__10674__D line[55] VGND VGND VPWR VPWR sky130_fd_sc_hd__diode_2
XANTENNA_OVHB\[20\].V_D TIE/HI VGND VGND VPWR VPWR sky130_fd_sc_hd__diode_2
X_08183_ _08189_/CLK line[68] VGND VGND VPWR VPWR _08184_/A sky130_fd_sc_hd__dfxtp_1
X_05395_ _05395_/CLK _05396_/X VGND VGND VPWR VPWR _05387_/CLK sky130_fd_sc_hd__dlclkp_1
XANTENNA__13050__D line[117] VGND VGND VPWR VPWR sky130_fd_sc_hd__diode_2
XFILLER_119_856 VGND VGND VPWR VPWR sky130_fd_sc_hd__fill_2
XANTENNA__05768__D line[116] VGND VGND VPWR VPWR sky130_fd_sc_hd__diode_2
X_07134_ _07133_/Q _07147_/Y VGND VGND VPWR VPWR _11894_/Z sky130_fd_sc_hd__ebufn_2
XANTENNA__08144__D line[50] VGND VGND VPWR VPWR sky130_fd_sc_hd__diode_2
XOVHB\[18\].VALID\[1\].FF OVHB\[18\].V/CLK A[10] VGND VGND VPWR VPWR OVHB\[18\].VALID\[1\].FF/Q
+ sky130_fd_sc_hd__dfxtp_1
XANTENNA__08722__A _08862_/A VGND VGND VPWR VPWR sky130_fd_sc_hd__diode_2
X_07065_ _07047_/CLK line[69] VGND VGND VPWR VPWR _07066_/A sky130_fd_sc_hd__dfxtp_1
XANTENNA__08441__B wr VGND VGND VPWR VPWR sky130_fd_sc_hd__diode_2
XANTENNA__07983__D line[105] VGND VGND VPWR VPWR sky130_fd_sc_hd__diode_2
X_06016_ _06015_/Q _06027_/Y VGND VGND VPWR VPWR _05176_/Z sky130_fd_sc_hd__ebufn_2
XFILLER_114_550 VGND VGND VPWR VPWR sky130_fd_sc_hd__fill_1
XANTENNA_OVHB\[12\].CGAND_B wr VGND VGND VPWR VPWR sky130_fd_sc_hd__diode_2
XFILLER_114_583 VGND VGND VPWR VPWR sky130_fd_sc_hd__decap_3
XFILLER_47_309 VGND VGND VPWR VPWR sky130_fd_sc_hd__fill_1
XFILLER_134_1269 VGND VGND VPWR VPWR sky130_fd_sc_hd__decap_8
X_07967_ _07975_/CLK line[97] VGND VGND VPWR VPWR _07967_/Q sky130_fd_sc_hd__dfxtp_1
XFILLER_68_670 VGND VGND VPWR VPWR sky130_fd_sc_hd__fill_1
XFILLER_87_489 VGND VGND VPWR VPWR sky130_fd_sc_hd__decap_8
X_09706_ _09705_/Q _09737_/Y VGND VGND VPWR VPWR _04946_/Z sky130_fd_sc_hd__ebufn_2
X_06918_ _06917_/Q _06937_/Y VGND VGND VPWR VPWR _04958_/Z sky130_fd_sc_hd__ebufn_2
XANTENNA__05008__D line[25] VGND VGND VPWR VPWR sky130_fd_sc_hd__diode_2
X_07898_ _07897_/Q _07917_/Y VGND VGND VPWR VPWR _09298_/Z sky130_fd_sc_hd__ebufn_2
XANTENNA__09703__D line[0] VGND VGND VPWR VPWR sky130_fd_sc_hd__diode_2
XANTENNA__10849__D line[7] VGND VGND VPWR VPWR sky130_fd_sc_hd__diode_2
X_09637_ _09647_/CLK line[107] VGND VGND VPWR VPWR _09637_/Q sky130_fd_sc_hd__dfxtp_1
X_06849_ _06833_/CLK line[98] VGND VGND VPWR VPWR _06850_/A sky130_fd_sc_hd__dfxtp_1
XFILLER_28_589 VGND VGND VPWR VPWR sky130_fd_sc_hd__decap_3
XFILLER_56_898 VGND VGND VPWR VPWR sky130_fd_sc_hd__fill_1
XFILLER_70_301 VGND VGND VPWR VPWR sky130_fd_sc_hd__decap_4
XANTENNA__13225__D line[69] VGND VGND VPWR VPWR sky130_fd_sc_hd__diode_2
XFILLER_128_1018 VGND VGND VPWR VPWR sky130_fd_sc_hd__fill_1
XANTENNA__08319__D line[2] VGND VGND VPWR VPWR sky130_fd_sc_hd__diode_2
X_09568_ _09567_/Q _09597_/Y VGND VGND VPWR VPWR _09288_/Z sky130_fd_sc_hd__ebufn_2
XPHY_702 VGND VPWR sky130_fd_sc_hd__tapvpwrvgnd_1
XPHY_2002 VGND VPWR sky130_fd_sc_hd__tapvpwrvgnd_1
XPHY_713 VGND VPWR sky130_fd_sc_hd__tapvpwrvgnd_1
XFILLER_90_15 VGND VGND VPWR VPWR sky130_fd_sc_hd__decap_12
XFILLER_130_66 VGND VGND VPWR VPWR sky130_fd_sc_hd__fill_1
XPHY_2013 VGND VPWR sky130_fd_sc_hd__tapvpwrvgnd_1
XPHY_2024 VGND VPWR sky130_fd_sc_hd__tapvpwrvgnd_1
XPHY_724 VGND VPWR sky130_fd_sc_hd__tapvpwrvgnd_1
X_08519_ _08525_/CLK line[108] VGND VGND VPWR VPWR _08520_/A sky130_fd_sc_hd__dfxtp_1
XPHY_2035 VGND VPWR sky130_fd_sc_hd__tapvpwrvgnd_1
XPHY_735 VGND VPWR sky130_fd_sc_hd__tapvpwrvgnd_1
XFILLER_70_389 VGND VGND VPWR VPWR sky130_fd_sc_hd__decap_3
XPHY_1301 VGND VPWR sky130_fd_sc_hd__tapvpwrvgnd_1
XPHY_746 VGND VPWR sky130_fd_sc_hd__tapvpwrvgnd_1
X_09499_ _09523_/CLK line[44] VGND VGND VPWR VPWR _09500_/A sky130_fd_sc_hd__dfxtp_1
XANTENNA__08616__B wr VGND VGND VPWR VPWR sky130_fd_sc_hd__diode_2
XPHY_2046 VGND VPWR sky130_fd_sc_hd__tapvpwrvgnd_1
XPHY_757 VGND VPWR sky130_fd_sc_hd__tapvpwrvgnd_1
XPHY_2057 VGND VPWR sky130_fd_sc_hd__tapvpwrvgnd_1
XPHY_1312 VGND VPWR sky130_fd_sc_hd__tapvpwrvgnd_1
XPHY_768 VGND VPWR sky130_fd_sc_hd__tapvpwrvgnd_1
XANTENNA_OVHB\[27\].VALID\[5\].FF_D A[14] VGND VGND VPWR VPWR sky130_fd_sc_hd__diode_2
XPHY_2068 VGND VPWR sky130_fd_sc_hd__tapvpwrvgnd_1
XPHY_1323 VGND VPWR sky130_fd_sc_hd__tapvpwrvgnd_1
X_11530_ _11529_/Q _11557_/Y VGND VGND VPWR VPWR _11810_/Z sky130_fd_sc_hd__ebufn_2
XPHY_2079 VGND VPWR sky130_fd_sc_hd__tapvpwrvgnd_1
XPHY_1334 VGND VPWR sky130_fd_sc_hd__tapvpwrvgnd_1
XPHY_779 VGND VPWR sky130_fd_sc_hd__tapvpwrvgnd_1
XPHY_1345 VGND VPWR sky130_fd_sc_hd__tapvpwrvgnd_1
XFILLER_135_3 VGND VGND VPWR VPWR sky130_fd_sc_hd__decap_12
XFILLER_8_928 VGND VGND VPWR VPWR sky130_fd_sc_hd__decap_8
XPHY_1356 VGND VPWR sky130_fd_sc_hd__tapvpwrvgnd_1
XANTENNA__10584__D line[28] VGND VGND VPWR VPWR sky130_fd_sc_hd__diode_2
XPHY_1367 VGND VPWR sky130_fd_sc_hd__tapvpwrvgnd_1
XPHY_1378 VGND VPWR sky130_fd_sc_hd__tapvpwrvgnd_1
X_11461_ _11455_/CLK line[45] VGND VGND VPWR VPWR _11461_/Q sky130_fd_sc_hd__dfxtp_1
XPHY_1389 VGND VPWR sky130_fd_sc_hd__tapvpwrvgnd_1
XANTENNA__05678__D line[80] VGND VGND VPWR VPWR sky130_fd_sc_hd__diode_2
XFILLER_104_1062 VGND VGND VPWR VPWR sky130_fd_sc_hd__decap_6
XFILLER_137_642 VGND VGND VPWR VPWR sky130_fd_sc_hd__decap_12
X_13200_ _13200_/CLK _13201_/X VGND VGND VPWR VPWR _13198_/CLK sky130_fd_sc_hd__dlclkp_1
X_10412_ _10411_/Q _10437_/Y VGND VGND VPWR VPWR _09292_/Z sky130_fd_sc_hd__ebufn_2
X_11392_ _11392_/A _11417_/Y VGND VGND VPWR VPWR _04952_/Z sky130_fd_sc_hd__ebufn_2
XFILLER_87_1024 VGND VGND VPWR VPWR sky130_fd_sc_hd__fill_1
XOVHB\[22\].VALID\[8\].TOBUF OVHB\[22\].VALID\[8\].FF/Q OVHB\[22\].INV/Y VGND VGND
+ VPWR VPWR _04935_/B2 sky130_fd_sc_hd__ebufn_2
X_13131_ _13306_/A wr VGND VGND VPWR VPWR _13131_/X sky130_fd_sc_hd__and2_1
X_10343_ _10351_/CLK line[46] VGND VGND VPWR VPWR _10343_/Q sky130_fd_sc_hd__dfxtp_1
XFILLER_136_196 VGND VGND VPWR VPWR sky130_fd_sc_hd__decap_12