* NGSPICE file created from NfiVe32_SYS.ext - technology: sky130A

* Black-box entry subcircuit for sky130_fd_sc_hd__decap_12 abstract view
.subckt sky130_fd_sc_hd__decap_12 VGND VNB VPB VPWR
.ends

* Black-box entry subcircuit for sky130_fd_sc_hd__diode_2 abstract view
.subckt sky130_fd_sc_hd__diode_2 DIODE VGND VNB VPB VPWR
.ends

* Black-box entry subcircuit for sky130_fd_sc_hd__decap_8 abstract view
.subckt sky130_fd_sc_hd__decap_8 VGND VNB VPB VPWR
.ends

* Black-box entry subcircuit for sky130_fd_sc_hd__o22a_4 abstract view
.subckt sky130_fd_sc_hd__o22a_4 A1 A2 B1 B2 VGND VNB VPB VPWR X
.ends

* Black-box entry subcircuit for sky130_fd_sc_hd__inv_2 abstract view
.subckt sky130_fd_sc_hd__inv_2 A VGND VNB VPB VPWR Y
.ends

* Black-box entry subcircuit for sky130_fd_sc_hd__decap_4 abstract view
.subckt sky130_fd_sc_hd__decap_4 VGND VNB VPB VPWR
.ends

* Black-box entry subcircuit for sky130_fd_sc_hd__tapvpwrvgnd_1 abstract view
.subckt sky130_fd_sc_hd__tapvpwrvgnd_1 VGND VPWR
.ends

* Black-box entry subcircuit for sky130_fd_sc_hd__fill_1 abstract view
.subckt sky130_fd_sc_hd__fill_1 VGND VNB VPB VPWR
.ends

* Black-box entry subcircuit for sky130_fd_sc_hd__dfxtp_4 abstract view
.subckt sky130_fd_sc_hd__dfxtp_4 CLK D VGND VNB VPB VPWR Q
.ends

* Black-box entry subcircuit for sky130_fd_sc_hd__buf_2 abstract view
.subckt sky130_fd_sc_hd__buf_2 A VGND VNB VPB VPWR X
.ends

* Black-box entry subcircuit for sky130_fd_sc_hd__decap_3 abstract view
.subckt sky130_fd_sc_hd__decap_3 VGND VNB VPB VPWR
.ends

* Black-box entry subcircuit for sky130_fd_sc_hd__decap_6 abstract view
.subckt sky130_fd_sc_hd__decap_6 VGND VNB VPB VPWR
.ends

* Black-box entry subcircuit for sky130_fd_sc_hd__and3_4 abstract view
.subckt sky130_fd_sc_hd__and3_4 A B C VGND VNB VPB VPWR X
.ends

* Black-box entry subcircuit for sky130_fd_sc_hd__fill_2 abstract view
.subckt sky130_fd_sc_hd__fill_2 VGND VNB VPB VPWR
.ends

* Black-box entry subcircuit for sky130_fd_sc_hd__or2_4 abstract view
.subckt sky130_fd_sc_hd__or2_4 A B VGND VNB VPB VPWR X
.ends

* Black-box entry subcircuit for sky130_fd_sc_hd__a32o_4 abstract view
.subckt sky130_fd_sc_hd__a32o_4 A1 A2 A3 B1 B2 VGND VNB VPB VPWR X
.ends

* Black-box entry subcircuit for sky130_fd_sc_hd__or3_4 abstract view
.subckt sky130_fd_sc_hd__or3_4 A B C VGND VNB VPB VPWR X
.ends

* Black-box entry subcircuit for sky130_fd_sc_hd__o21a_4 abstract view
.subckt sky130_fd_sc_hd__o21a_4 A1 A2 B1 VGND VNB VPB VPWR X
.ends

* Black-box entry subcircuit for sky130_fd_sc_hd__a22oi_4 abstract view
.subckt sky130_fd_sc_hd__a22oi_4 A1 A2 B1 B2 VGND VNB VPB VPWR Y
.ends

* Black-box entry subcircuit for sky130_fd_sc_hd__a21o_4 abstract view
.subckt sky130_fd_sc_hd__a21o_4 A1 A2 B1 VGND VNB VPB VPWR X
.ends

* Black-box entry subcircuit for sky130_fd_sc_hd__clkbuf_1 abstract view
.subckt sky130_fd_sc_hd__clkbuf_1 A VGND VNB VPB VPWR X
.ends

* Black-box entry subcircuit for sky130_fd_sc_hd__a211o_4 abstract view
.subckt sky130_fd_sc_hd__a211o_4 A1 A2 B1 C1 VGND VNB VPB VPWR X
.ends

* Black-box entry subcircuit for sky130_fd_sc_hd__or4_4 abstract view
.subckt sky130_fd_sc_hd__or4_4 A B C D VGND VNB VPB VPWR X
.ends

* Black-box entry subcircuit for sky130_fd_sc_hd__nor2_4 abstract view
.subckt sky130_fd_sc_hd__nor2_4 A B VGND VNB VPB VPWR Y
.ends

* Black-box entry subcircuit for sky130_fd_sc_hd__and2_4 abstract view
.subckt sky130_fd_sc_hd__and2_4 A B VGND VNB VPB VPWR X
.ends

* Black-box entry subcircuit for sky130_fd_sc_hd__o21ai_4 abstract view
.subckt sky130_fd_sc_hd__o21ai_4 A1 A2 B1 VGND VNB VPB VPWR Y
.ends

* Black-box entry subcircuit for sky130_fd_sc_hd__nand2_4 abstract view
.subckt sky130_fd_sc_hd__nand2_4 A B VGND VNB VPB VPWR Y
.ends

* Black-box entry subcircuit for sky130_fd_sc_hd__dfrtp_4 abstract view
.subckt sky130_fd_sc_hd__dfrtp_4 CLK D RESET_B VGND VNB VPB VPWR Q
.ends

* Black-box entry subcircuit for sky130_fd_sc_hd__a2bb2o_4 abstract view
.subckt sky130_fd_sc_hd__a2bb2o_4 A1_N A2_N B1 B2 VGND VNB VPB VPWR X
.ends

* Black-box entry subcircuit for sky130_fd_sc_hd__dfstp_4 abstract view
.subckt sky130_fd_sc_hd__dfstp_4 CLK D SET_B VGND VNB VPB VPWR Q
.ends

* Black-box entry subcircuit for sky130_fd_sc_hd__and4_4 abstract view
.subckt sky130_fd_sc_hd__and4_4 A B C D VGND VNB VPB VPWR X
.ends

* Black-box entry subcircuit for sky130_fd_sc_hd__a21oi_4 abstract view
.subckt sky130_fd_sc_hd__a21oi_4 A1 A2 B1 VGND VNB VPB VPWR Y
.ends

* Black-box entry subcircuit for sky130_fd_sc_hd__a21bo_4 abstract view
.subckt sky130_fd_sc_hd__a21bo_4 A1 A2 B1_N VGND VNB VPB VPWR X
.ends

* Black-box entry subcircuit for sky130_fd_sc_hd__o32a_4 abstract view
.subckt sky130_fd_sc_hd__o32a_4 A1 A2 A3 B1 B2 VGND VNB VPB VPWR X
.ends

* Black-box entry subcircuit for sky130_fd_sc_hd__conb_1 abstract view
.subckt sky130_fd_sc_hd__conb_1 VGND VNB VPB VPWR HI LO
.ends

* Black-box entry subcircuit for sky130_fd_sc_hd__a21boi_4 abstract view
.subckt sky130_fd_sc_hd__a21boi_4 A1 A2 B1_N VGND VNB VPB VPWR Y
.ends

* Black-box entry subcircuit for sky130_fd_sc_hd__clkbuf_16 abstract view
.subckt sky130_fd_sc_hd__clkbuf_16 A VGND VNB VPB VPWR X
.ends

.subckt NfiVe32_SYS HADDR[0] HADDR[10] HADDR[11] HADDR[12] HADDR[13] HADDR[14] HADDR[15]
+ HADDR[16] HADDR[17] HADDR[18] HADDR[19] HADDR[1] HADDR[20] HADDR[21] HADDR[22] HADDR[23]
+ HADDR[24] HADDR[25] HADDR[26] HADDR[27] HADDR[28] HADDR[29] HADDR[2] HADDR[30] HADDR[31]
+ HADDR[3] HADDR[4] HADDR[5] HADDR[6] HADDR[7] HADDR[8] HADDR[9] HCLK HRDATA[0] HRDATA[10]
+ HRDATA[11] HRDATA[12] HRDATA[13] HRDATA[14] HRDATA[15] HRDATA[16] HRDATA[17] HRDATA[18]
+ HRDATA[19] HRDATA[1] HRDATA[20] HRDATA[21] HRDATA[22] HRDATA[23] HRDATA[24] HRDATA[25]
+ HRDATA[26] HRDATA[27] HRDATA[28] HRDATA[29] HRDATA[2] HRDATA[30] HRDATA[31] HRDATA[3]
+ HRDATA[4] HRDATA[5] HRDATA[6] HRDATA[7] HRDATA[8] HRDATA[9] HREADY HRESETn HSIZE[0]
+ HSIZE[1] HSIZE[2] HTRANS[0] HTRANS[1] HWDATA[0] HWDATA[10] HWDATA[11] HWDATA[12]
+ HWDATA[13] HWDATA[14] HWDATA[15] HWDATA[16] HWDATA[17] HWDATA[18] HWDATA[19] HWDATA[1]
+ HWDATA[20] HWDATA[21] HWDATA[22] HWDATA[23] HWDATA[24] HWDATA[25] HWDATA[26] HWDATA[27]
+ HWDATA[28] HWDATA[29] HWDATA[2] HWDATA[30] HWDATA[31] HWDATA[3] HWDATA[4] HWDATA[5]
+ HWDATA[6] HWDATA[7] HWDATA[8] HWDATA[9] HWRITE IRQ[0] IRQ[10] IRQ[11] IRQ[12] IRQ[13]
+ IRQ[14] IRQ[15] IRQ[16] IRQ[17] IRQ[18] IRQ[19] IRQ[1] IRQ[20] IRQ[21] IRQ[22] IRQ[23]
+ IRQ[24] IRQ[25] IRQ[26] IRQ[27] IRQ[28] IRQ[29] IRQ[2] IRQ[30] IRQ[31] IRQ[3] IRQ[4]
+ IRQ[5] IRQ[6] IRQ[7] IRQ[8] IRQ[9] NMI SYSTICKCLKDIV[0] SYSTICKCLKDIV[1] SYSTICKCLKDIV[2]
+ SYSTICKCLKDIV[3] SYSTICKCLKDIV[4] SYSTICKCLKDIV[5] SYSTICKCLKDIV[6] SYSTICKCLKDIV[7]
+ VPWR VGND
XFILLER_45_1385 VGND VGND VPWR VPWR sky130_fd_sc_hd__decap_12
XANTENNA__21917__A2 _21916_/X VGND VGND VPWR VPWR sky130_fd_sc_hd__diode_2
XFILLER_3_1700 VGND VGND VPWR VPWR sky130_fd_sc_hd__decap_8
XANTENNA__15814__B _15869_/B VGND VGND VPWR VPWR sky130_fd_sc_hd__diode_2
X_18869_ _15652_/A _18863_/X _24417_/Q _18864_/X VGND VGND VPWR VPWR _24417_/D sky130_fd_sc_hd__o22a_4
XANTENNA__18794__A1 _17266_/X VGND VGND VPWR VPWR sky130_fd_sc_hd__diode_2
X_20900_ HRDATA[5] VGND VGND VPWR VPWR _20900_/Y sky130_fd_sc_hd__inv_2
X_21880_ _21879_/X _21875_/X _15351_/B _21870_/X VGND VGND VPWR VPWR _23608_/D sky130_fd_sc_hd__o22a_4
XFILLER_23_1672 VGND VGND VPWR VPWR sky130_fd_sc_hd__decap_4
XFILLER_110_1642 VGND VGND VPWR VPWR sky130_fd_sc_hd__decap_8
X_20831_ _20782_/X _20830_/X _19087_/A _20789_/X VGND VGND VPWR VPWR _20831_/X sky130_fd_sc_hd__o22a_4
XANTENNA__22878__B1 _17397_/Y VGND VGND VPWR VPWR sky130_fd_sc_hd__diode_2
XPHY_3109 VGND VPWR sky130_fd_sc_hd__tapvpwrvgnd_1
XFILLER_54_269 VGND VGND VPWR VPWR sky130_fd_sc_hd__decap_4
XFILLER_36_973 VGND VGND VPWR VPWR sky130_fd_sc_hd__fill_1
XFILLER_63_770 VGND VGND VPWR VPWR sky130_fd_sc_hd__fill_1
XANTENNA__15830__A _12864_/A VGND VGND VPWR VPWR sky130_fd_sc_hd__diode_2
X_20762_ _20754_/X _20760_/X _19141_/A _20761_/X VGND VGND VPWR VPWR _20763_/B sky130_fd_sc_hd__o22a_4
X_23550_ _23486_/CLK _21976_/X VGND VGND VPWR VPWR _23550_/Q sky130_fd_sc_hd__dfxtp_4
XPHY_2408 VGND VPWR sky130_fd_sc_hd__tapvpwrvgnd_1
XPHY_2419 VGND VPWR sky130_fd_sc_hd__tapvpwrvgnd_1
XANTENNA__21550__B1 _12602_/B VGND VGND VPWR VPWR sky130_fd_sc_hd__diode_2
X_22501_ _22501_/A VGND VGND VPWR VPWR _22501_/X sky130_fd_sc_hd__buf_2
XPHY_1707 VGND VPWR sky130_fd_sc_hd__tapvpwrvgnd_1
X_23481_ _23455_/CLK _22083_/X VGND VGND VPWR VPWR _14750_/B sky130_fd_sc_hd__dfxtp_4
XANTENNA__24239__RESET_B HRESETn VGND VGND VPWR VPWR sky130_fd_sc_hd__diode_2
X_20693_ _20693_/A VGND VGND VPWR VPWR _20693_/X sky130_fd_sc_hd__buf_2
XPHY_1718 VGND VPWR sky130_fd_sc_hd__tapvpwrvgnd_1
XPHY_1729 VGND VPWR sky130_fd_sc_hd__tapvpwrvgnd_1
XANTENNA_clkbuf_5_13_0_HCLK_A clkbuf_4_6_0_HCLK/X VGND VGND VPWR VPWR sky130_fd_sc_hd__diode_2
X_22432_ _22117_/A VGND VGND VPWR VPWR _22432_/X sky130_fd_sc_hd__buf_2
XFILLER_104_1402 VGND VGND VPWR VPWR sky130_fd_sc_hd__decap_3
XFILLER_22_177 VGND VGND VPWR VPWR sky130_fd_sc_hd__decap_3
XFILLER_17_1465 VGND VGND VPWR VPWR sky130_fd_sc_hd__decap_6
XFILLER_108_1593 VGND VGND VPWR VPWR sky130_fd_sc_hd__decap_3
XFILLER_109_717 VGND VGND VPWR VPWR sky130_fd_sc_hd__fill_1
XFILLER_52_1378 VGND VGND VPWR VPWR sky130_fd_sc_hd__decap_8
X_22363_ _22097_/X _22362_/X _12128_/B _22359_/X VGND VGND VPWR VPWR _23315_/D sky130_fd_sc_hd__o22a_4
X_21314_ _21313_/X _21305_/X _23926_/Q _21252_/A VGND VGND VPWR VPWR _21314_/X sky130_fd_sc_hd__o22a_4
X_24102_ _23973_/CLK _20615_/X VGND VGND VPWR VPWR _24102_/Q sky130_fd_sc_hd__dfxtp_4
X_22294_ _22294_/A VGND VGND VPWR VPWR _22294_/X sky130_fd_sc_hd__buf_2
XFILLER_105_901 VGND VGND VPWR VPWR sky130_fd_sc_hd__decap_6
X_24033_ _24068_/CLK _24033_/D VGND VGND VPWR VPWR _15532_/B sky130_fd_sc_hd__dfxtp_4
XFILLER_89_1290 VGND VGND VPWR VPWR sky130_fd_sc_hd__fill_1
X_21245_ _21269_/A VGND VGND VPWR VPWR _21245_/X sky130_fd_sc_hd__buf_2
XFILLER_30_1698 VGND VGND VPWR VPWR sky130_fd_sc_hd__decap_12
XFILLER_2_516 VGND VGND VPWR VPWR sky130_fd_sc_hd__decap_3
XANTENNA__15277__A _14985_/A VGND VGND VPWR VPWR sky130_fd_sc_hd__diode_2
XFILLER_2_527 VGND VGND VPWR VPWR sky130_fd_sc_hd__fill_1
XFILLER_89_111 VGND VGND VPWR VPWR sky130_fd_sc_hd__decap_4
XFILLER_11_1097 VGND VGND VPWR VPWR sky130_fd_sc_hd__fill_1
XANTENNA__20813__C1 _20812_/Y VGND VGND VPWR VPWR sky130_fd_sc_hd__diode_2
XFILLER_77_15 VGND VGND VPWR VPWR sky130_fd_sc_hd__decap_6
X_21176_ _21169_/A VGND VGND VPWR VPWR _21176_/X sky130_fd_sc_hd__buf_2
XFILLER_46_1138 VGND VGND VPWR VPWR sky130_fd_sc_hd__decap_8
XFILLER_105_989 VGND VGND VPWR VPWR sky130_fd_sc_hd__fill_1
X_20127_ _20127_/A _20126_/X _19049_/A VGND VGND VPWR VPWR _20127_/X sky130_fd_sc_hd__and3_4
XANTENNA__21908__A2 _21902_/X VGND VGND VPWR VPWR sky130_fd_sc_hd__diode_2
XANTENNA__22030__A1 _21872_/X VGND VGND VPWR VPWR sky130_fd_sc_hd__diode_2
X_20058_ _20040_/X _18359_/X _20046_/X _20057_/X VGND VGND VPWR VPWR _20058_/X sky130_fd_sc_hd__o22a_4
XANTENNA__22030__B2 _22028_/X VGND VGND VPWR VPWR sky130_fd_sc_hd__diode_2
XFILLER_86_884 VGND VGND VPWR VPWR sky130_fd_sc_hd__fill_1
X_11900_ _11900_/A VGND VGND VPWR VPWR _12854_/A sky130_fd_sc_hd__buf_2
XANTENNA__22581__A2 _22579_/X VGND VGND VPWR VPWR sky130_fd_sc_hd__diode_2
XFILLER_2_1210 VGND VGND VPWR VPWR sky130_fd_sc_hd__decap_8
X_12880_ _12472_/A _12878_/X _12880_/C VGND VGND VPWR VPWR _12881_/C sky130_fd_sc_hd__and3_4
XFILLER_45_225 VGND VGND VPWR VPWR sky130_fd_sc_hd__fill_1
XFILLER_18_439 VGND VGND VPWR VPWR sky130_fd_sc_hd__fill_2
X_11831_ _11786_/X _11823_/X _11830_/X VGND VGND VPWR VPWR _11850_/B sky130_fd_sc_hd__and3_4
X_23817_ _23721_/CLK _23817_/D VGND VGND VPWR VPWR _12964_/B sky130_fd_sc_hd__dfxtp_4
XPHY_3610 VGND VPWR sky130_fd_sc_hd__tapvpwrvgnd_1
XFILLER_57_1223 VGND VGND VPWR VPWR sky130_fd_sc_hd__decap_8
XPHY_3621 VGND VPWR sky130_fd_sc_hd__tapvpwrvgnd_1
XANTENNA__15740__A _11755_/X VGND VGND VPWR VPWR sky130_fd_sc_hd__diode_2
X_14550_ _14482_/X _14549_/Y VGND VGND VPWR VPWR _15389_/B sky130_fd_sc_hd__or2_4
XANTENNA__19353__A2_N _18327_/X VGND VGND VPWR VPWR sky130_fd_sc_hd__diode_2
XPHY_3632 VGND VPWR sky130_fd_sc_hd__tapvpwrvgnd_1
X_11762_ _11742_/X VGND VGND VPWR VPWR _11819_/A sky130_fd_sc_hd__buf_2
X_23748_ _23363_/CLK _21635_/X VGND VGND VPWR VPWR _23748_/Q sky130_fd_sc_hd__dfxtp_4
XPHY_3643 VGND VPWR sky130_fd_sc_hd__tapvpwrvgnd_1
XFILLER_18_1207 VGND VGND VPWR VPWR sky130_fd_sc_hd__decap_3
XPHY_2920 VGND VPWR sky130_fd_sc_hd__tapvpwrvgnd_1
X_13501_ _13490_/A _23781_/Q VGND VGND VPWR VPWR _13501_/X sky130_fd_sc_hd__or2_4
XPHY_2931 VGND VPWR sky130_fd_sc_hd__tapvpwrvgnd_1
XFILLER_42_976 VGND VGND VPWR VPWR sky130_fd_sc_hd__decap_3
XFILLER_35_1510 VGND VGND VPWR VPWR sky130_fd_sc_hd__fill_1
XFILLER_13_144 VGND VGND VPWR VPWR sky130_fd_sc_hd__decap_12
XPHY_2942 VGND VPWR sky130_fd_sc_hd__tapvpwrvgnd_1
X_14481_ _13016_/A _14458_/X _14465_/X _14472_/X _14480_/X VGND VGND VPWR VPWR _14481_/X
+ sky130_fd_sc_hd__a32o_4
X_11693_ _16229_/A VGND VGND VPWR VPWR _16075_/A sky130_fd_sc_hd__buf_2
X_23679_ _24063_/CLK _21742_/X VGND VGND VPWR VPWR _23679_/Q sky130_fd_sc_hd__dfxtp_4
XFILLER_70_1412 VGND VGND VPWR VPWR sky130_fd_sc_hd__decap_12
XANTENNA__14356__A _14368_/A VGND VGND VPWR VPWR sky130_fd_sc_hd__diode_2
XPHY_2953 VGND VPWR sky130_fd_sc_hd__tapvpwrvgnd_1
XFILLER_74_1581 VGND VGND VPWR VPWR sky130_fd_sc_hd__decap_12
XFILLER_9_115 VGND VGND VPWR VPWR sky130_fd_sc_hd__decap_6
XPHY_2964 VGND VPWR sky130_fd_sc_hd__tapvpwrvgnd_1
X_16220_ _16232_/A _16218_/X _16219_/X VGND VGND VPWR VPWR _16220_/X sky130_fd_sc_hd__and3_4
XFILLER_41_486 VGND VGND VPWR VPWR sky130_fd_sc_hd__fill_2
XANTENNA__13260__A _12978_/A VGND VGND VPWR VPWR sky130_fd_sc_hd__diode_2
XPHY_2975 VGND VPWR sky130_fd_sc_hd__tapvpwrvgnd_1
X_13432_ _13431_/X _13507_/B VGND VGND VPWR VPWR _13433_/C sky130_fd_sc_hd__or2_4
XPHY_2986 VGND VPWR sky130_fd_sc_hd__tapvpwrvgnd_1
XPHY_2997 VGND VPWR sky130_fd_sc_hd__tapvpwrvgnd_1
XFILLER_35_1587 VGND VGND VPWR VPWR sky130_fd_sc_hd__decap_3
X_16151_ _16116_/A _16149_/X _16151_/C VGND VGND VPWR VPWR _16152_/C sky130_fd_sc_hd__and3_4
XFILLER_107_1092 VGND VGND VPWR VPWR sky130_fd_sc_hd__decap_6
X_13363_ _12788_/A _13355_/X _13362_/X VGND VGND VPWR VPWR _13363_/X sky130_fd_sc_hd__and3_4
XANTENNA__21844__B2 _21834_/X VGND VGND VPWR VPWR sky130_fd_sc_hd__diode_2
X_15102_ _15102_/A _15100_/X _15102_/C VGND VGND VPWR VPWR _15102_/X sky130_fd_sc_hd__and3_4
X_12314_ _12314_/A _12314_/B VGND VGND VPWR VPWR _12314_/X sky130_fd_sc_hd__or2_4
X_16082_ _16082_/A _16082_/B _16081_/X VGND VGND VPWR VPWR _16082_/X sky130_fd_sc_hd__or3_4
X_13294_ _13294_/A _24006_/Q VGND VGND VPWR VPWR _13295_/C sky130_fd_sc_hd__or2_4
XANTENNA__16290__B _16290_/B VGND VGND VPWR VPWR sky130_fd_sc_hd__diode_2
X_15033_ _13993_/A _15033_/B VGND VGND VPWR VPWR _15035_/B sky130_fd_sc_hd__or2_4
X_19910_ _19955_/A _19909_/X VGND VGND VPWR VPWR _19910_/X sky130_fd_sc_hd__or2_4
XANTENNA__15187__A _15076_/A VGND VGND VPWR VPWR sky130_fd_sc_hd__diode_2
X_12245_ _12731_/A _23564_/Q VGND VGND VPWR VPWR _12245_/X sky130_fd_sc_hd__or2_4
XFILLER_68_1352 VGND VGND VPWR VPWR sky130_fd_sc_hd__decap_3
XFILLER_5_387 VGND VGND VPWR VPWR sky130_fd_sc_hd__fill_1
XANTENNA__14091__A _14102_/A VGND VGND VPWR VPWR sky130_fd_sc_hd__diode_2
XANTENNA__12604__A _12604_/A VGND VGND VPWR VPWR sky130_fd_sc_hd__diode_2
XFILLER_68_1374 VGND VGND VPWR VPWR sky130_fd_sc_hd__fill_1
XFILLER_64_1216 VGND VGND VPWR VPWR sky130_fd_sc_hd__decap_12
X_12176_ _11823_/A _12172_/X _12175_/X VGND VGND VPWR VPWR _12176_/X sky130_fd_sc_hd__or3_4
X_19841_ _19661_/X _19868_/B _19728_/B VGND VGND VPWR VPWR _19841_/X sky130_fd_sc_hd__o21a_4
XANTENNA__21072__A2 _21066_/X VGND VGND VPWR VPWR sky130_fd_sc_hd__diode_2
XFILLER_64_1238 VGND VGND VPWR VPWR sky130_fd_sc_hd__decap_6
XFILLER_29_1358 VGND VGND VPWR VPWR sky130_fd_sc_hd__fill_1
XANTENNA__20821__A HRDATA[8] VGND VGND VPWR VPWR sky130_fd_sc_hd__diode_2
XFILLER_3_56 VGND VGND VPWR VPWR sky130_fd_sc_hd__decap_4
XANTENNA__15915__A _15849_/X VGND VGND VPWR VPWR sky130_fd_sc_hd__diode_2
X_16984_ _17708_/A _18403_/B VGND VGND VPWR VPWR _16984_/X sky130_fd_sc_hd__or2_4
X_19772_ _19469_/X _19771_/X _16684_/A _19515_/X VGND VGND VPWR VPWR _19772_/Y sky130_fd_sc_hd__a22oi_4
XFILLER_96_648 VGND VGND VPWR VPWR sky130_fd_sc_hd__fill_1
XFILLER_27_1060 VGND VGND VPWR VPWR sky130_fd_sc_hd__fill_1
XFILLER_114_1030 VGND VGND VPWR VPWR sky130_fd_sc_hd__fill_2
XFILLER_3_89 VGND VGND VPWR VPWR sky130_fd_sc_hd__decap_12
X_15935_ _15934_/X VGND VGND VPWR VPWR _15971_/A sky130_fd_sc_hd__buf_2
X_18723_ _18698_/A _18722_/Y _17749_/X VGND VGND VPWR VPWR _18723_/X sky130_fd_sc_hd__a21o_4
XFILLER_7_1176 VGND VGND VPWR VPWR sky130_fd_sc_hd__decap_8
Xclkbuf_7_24_0_HCLK clkbuf_6_12_0_HCLK/X VGND VGND VPWR VPWR _23199_/CLK sky130_fd_sc_hd__clkbuf_1
XFILLER_77_884 VGND VGND VPWR VPWR sky130_fd_sc_hd__fill_1
XANTENNA__18776__A1 _17750_/A VGND VGND VPWR VPWR sky130_fd_sc_hd__diode_2
XANTENNA__13435__A _12889_/A VGND VGND VPWR VPWR sky130_fd_sc_hd__diode_2
X_18654_ _17806_/A _18054_/Y _17869_/A _18653_/X VGND VGND VPWR VPWR _18655_/A sky130_fd_sc_hd__a211o_4
XFILLER_114_1085 VGND VGND VPWR VPWR sky130_fd_sc_hd__fill_2
X_15866_ _15873_/A _15811_/B VGND VGND VPWR VPWR _15866_/X sky130_fd_sc_hd__or2_4
XFILLER_92_843 VGND VGND VPWR VPWR sky130_fd_sc_hd__fill_1
Xclkbuf_7_87_0_HCLK clkbuf_7_87_0_HCLK/A VGND VGND VPWR VPWR _24295_/CLK sky130_fd_sc_hd__clkbuf_1
X_14817_ _14655_/A _14817_/B _14817_/C VGND VGND VPWR VPWR _14818_/C sky130_fd_sc_hd__and3_4
X_17605_ _17605_/A _17509_/A _18279_/B _18292_/A VGND VGND VPWR VPWR _17639_/B sky130_fd_sc_hd__or4_4
XFILLER_97_1069 VGND VGND VPWR VPWR sky130_fd_sc_hd__decap_4
X_18585_ _17111_/X _18157_/Y _17870_/A _18584_/Y VGND VGND VPWR VPWR _18585_/X sky130_fd_sc_hd__a211o_4
X_15797_ _12848_/A _15858_/B VGND VGND VPWR VPWR _15798_/C sky130_fd_sc_hd__or2_4
XFILLER_79_1481 VGND VGND VPWR VPWR sky130_fd_sc_hd__fill_1
XFILLER_45_770 VGND VGND VPWR VPWR sky130_fd_sc_hd__fill_1
XANTENNA__16746__A _11963_/A VGND VGND VPWR VPWR sky130_fd_sc_hd__diode_2
XFILLER_91_386 VGND VGND VPWR VPWR sky130_fd_sc_hd__decap_12
X_17536_ _17490_/X _17536_/B VGND VGND VPWR VPWR _17536_/Y sky130_fd_sc_hd__nor2_4
XFILLER_75_1334 VGND VGND VPWR VPWR sky130_fd_sc_hd__decap_6
XFILLER_33_932 VGND VGND VPWR VPWR sky130_fd_sc_hd__fill_1
XANTENNA__15650__A _11668_/A VGND VGND VPWR VPWR sky130_fd_sc_hd__diode_2
X_14748_ _13645_/A _14748_/B _14747_/X VGND VGND VPWR VPWR _14748_/X sky130_fd_sc_hd__and3_4
XFILLER_36_1307 VGND VGND VPWR VPWR sky130_fd_sc_hd__decap_4
XFILLER_32_442 VGND VGND VPWR VPWR sky130_fd_sc_hd__decap_12
XANTENNA__24332__RESET_B HRESETn VGND VGND VPWR VPWR sky130_fd_sc_hd__diode_2
X_17467_ _12842_/X _17466_/B VGND VGND VPWR VPWR _17468_/A sky130_fd_sc_hd__or2_4
X_14679_ _14692_/A _14594_/B VGND VGND VPWR VPWR _14680_/C sky130_fd_sc_hd__or2_4
XFILLER_60_784 VGND VGND VPWR VPWR sky130_fd_sc_hd__decap_6
XANTENNA__18961__A _19049_/A VGND VGND VPWR VPWR sky130_fd_sc_hd__diode_2
XANTENNA__13170__A _15692_/A VGND VGND VPWR VPWR sky130_fd_sc_hd__diode_2
X_16418_ _13475_/A _16414_/X _16417_/X VGND VGND VPWR VPWR _16418_/X sky130_fd_sc_hd__or3_4
X_19206_ _24318_/Q _19139_/B _19205_/Y VGND VGND VPWR VPWR _19206_/X sky130_fd_sc_hd__o21a_4
XFILLER_53_1643 VGND VGND VPWR VPWR sky130_fd_sc_hd__fill_2
X_17398_ _17262_/A VGND VGND VPWR VPWR _17398_/Y sky130_fd_sc_hd__inv_2
X_19137_ _24316_/Q _19137_/B VGND VGND VPWR VPWR _19138_/B sky130_fd_sc_hd__and2_4
X_16349_ _16373_/A _16347_/X _16348_/X VGND VGND VPWR VPWR _16349_/X sky130_fd_sc_hd__and3_4
XANTENNA__21835__B2 _21834_/X VGND VGND VPWR VPWR sky130_fd_sc_hd__diode_2
XFILLER_69_1105 VGND VGND VPWR VPWR sky130_fd_sc_hd__fill_1
X_19068_ _19024_/A VGND VGND VPWR VPWR _19068_/X sky130_fd_sc_hd__buf_2
X_18019_ _18019_/A VGND VGND VPWR VPWR _18215_/A sky130_fd_sc_hd__buf_2
XANTENNA__15097__A _15109_/A VGND VGND VPWR VPWR sky130_fd_sc_hd__diode_2
XANTENNA__19792__A HRDATA[16] VGND VGND VPWR VPWR sky130_fd_sc_hd__diode_2
XFILLER_114_720 VGND VGND VPWR VPWR sky130_fd_sc_hd__fill_1
XANTENNA__12514__A _12513_/X VGND VGND VPWR VPWR sky130_fd_sc_hd__diode_2
X_21030_ _21989_/D VGND VGND VPWR VPWR _21756_/B sky130_fd_sc_hd__buf_2
XFILLER_113_230 VGND VGND VPWR VPWR sky130_fd_sc_hd__decap_6
XANTENNA__21827__A _21839_/A VGND VGND VPWR VPWR sky130_fd_sc_hd__diode_2
XFILLER_87_604 VGND VGND VPWR VPWR sky130_fd_sc_hd__decap_6
XANTENNA__22260__B2 _22255_/X VGND VGND VPWR VPWR sky130_fd_sc_hd__diode_2
XANTENNA__13329__B _13412_/B VGND VGND VPWR VPWR sky130_fd_sc_hd__diode_2
XFILLER_47_1458 VGND VGND VPWR VPWR sky130_fd_sc_hd__fill_2
XFILLER_59_306 VGND VGND VPWR VPWR sky130_fd_sc_hd__decap_12
XANTENNA__15825__A _12866_/A VGND VGND VPWR VPWR sky130_fd_sc_hd__diode_2
XFILLER_101_425 VGND VGND VPWR VPWR sky130_fd_sc_hd__fill_2
XFILLER_45_1160 VGND VGND VPWR VPWR sky130_fd_sc_hd__fill_1
XANTENNA__20450__B _20450_/B VGND VGND VPWR VPWR sky130_fd_sc_hd__diode_2
XFILLER_60_1625 VGND VGND VPWR VPWR sky130_fd_sc_hd__decap_12
XFILLER_80_1062 VGND VGND VPWR VPWR sky130_fd_sc_hd__fill_1
XFILLER_86_158 VGND VGND VPWR VPWR sky130_fd_sc_hd__fill_1
XANTENNA__22012__B2 _22007_/X VGND VGND VPWR VPWR sky130_fd_sc_hd__diode_2
X_22981_ _22992_/A _22979_/Y _22980_/X VGND VGND VPWR VPWR _22981_/X sky130_fd_sc_hd__and3_4
XFILLER_80_1095 VGND VGND VPWR VPWR sky130_fd_sc_hd__fill_1
XFILLER_95_670 VGND VGND VPWR VPWR sky130_fd_sc_hd__fill_1
XFILLER_28_715 VGND VGND VPWR VPWR sky130_fd_sc_hd__fill_1
XFILLER_55_512 VGND VGND VPWR VPWR sky130_fd_sc_hd__fill_2
XANTENNA__22563__A2 _22558_/X VGND VGND VPWR VPWR sky130_fd_sc_hd__diode_2
X_21932_ _21877_/X _21930_/X _14728_/B _21927_/X VGND VGND VPWR VPWR _21932_/X sky130_fd_sc_hd__o22a_4
XFILLER_83_843 VGND VGND VPWR VPWR sky130_fd_sc_hd__fill_1
XANTENNA__22658__A _22651_/A VGND VGND VPWR VPWR sky130_fd_sc_hd__diode_2
XFILLER_55_556 VGND VGND VPWR VPWR sky130_fd_sc_hd__fill_2
XFILLER_15_409 VGND VGND VPWR VPWR sky130_fd_sc_hd__decap_12
XANTENNA__13064__B _12995_/B VGND VGND VPWR VPWR sky130_fd_sc_hd__diode_2
X_21863_ _21863_/A VGND VGND VPWR VPWR _21863_/X sky130_fd_sc_hd__buf_2
XANTENNA__16656__A _16634_/A VGND VGND VPWR VPWR sky130_fd_sc_hd__diode_2
XFILLER_58_1532 VGND VGND VPWR VPWR sky130_fd_sc_hd__fill_1
XFILLER_3_1596 VGND VGND VPWR VPWR sky130_fd_sc_hd__fill_1
X_23602_ _23602_/CLK _23602_/D VGND VGND VPWR VPWR _23602_/Q sky130_fd_sc_hd__dfxtp_4
X_20814_ _20814_/A VGND VGND VPWR VPWR _20814_/Y sky130_fd_sc_hd__inv_2
XFILLER_58_1554 VGND VGND VPWR VPWR sky130_fd_sc_hd__fill_2
XANTENNA__20326__A1 _20315_/X VGND VGND VPWR VPWR sky130_fd_sc_hd__diode_2
X_21794_ _21582_/X _21791_/X _13849_/B _21788_/X VGND VGND VPWR VPWR _21794_/X sky130_fd_sc_hd__o22a_4
XPHY_905 VGND VPWR sky130_fd_sc_hd__tapvpwrvgnd_1
XPHY_2205 VGND VPWR sky130_fd_sc_hd__tapvpwrvgnd_1
XPHY_916 VGND VPWR sky130_fd_sc_hd__tapvpwrvgnd_1
XANTENNA__20326__B2 _20325_/X VGND VGND VPWR VPWR sky130_fd_sc_hd__diode_2
XPHY_2216 VGND VPWR sky130_fd_sc_hd__tapvpwrvgnd_1
XPHY_927 VGND VPWR sky130_fd_sc_hd__tapvpwrvgnd_1
XPHY_938 VGND VPWR sky130_fd_sc_hd__tapvpwrvgnd_1
XPHY_2227 VGND VPWR sky130_fd_sc_hd__tapvpwrvgnd_1
X_23533_ _23532_/CLK _23533_/D VGND VGND VPWR VPWR _23533_/Q sky130_fd_sc_hd__dfxtp_4
XPHY_949 VGND VPWR sky130_fd_sc_hd__tapvpwrvgnd_1
XPHY_2238 VGND VPWR sky130_fd_sc_hd__tapvpwrvgnd_1
X_20745_ _21572_/A VGND VGND VPWR VPWR _20745_/X sky130_fd_sc_hd__buf_2
XPHY_1504 VGND VPWR sky130_fd_sc_hd__tapvpwrvgnd_1
XPHY_2249 VGND VPWR sky130_fd_sc_hd__tapvpwrvgnd_1
XPHY_1515 VGND VPWR sky130_fd_sc_hd__tapvpwrvgnd_1
XPHY_1526 VGND VPWR sky130_fd_sc_hd__tapvpwrvgnd_1
XPHY_1537 VGND VPWR sky130_fd_sc_hd__tapvpwrvgnd_1
XFILLER_50_272 VGND VGND VPWR VPWR sky130_fd_sc_hd__decap_3
XANTENNA__22079__A1 _21869_/X VGND VGND VPWR VPWR sky130_fd_sc_hd__diode_2
X_20676_ _20447_/A VGND VGND VPWR VPWR _20676_/X sky130_fd_sc_hd__buf_2
X_23464_ _23880_/CLK _23464_/D VGND VGND VPWR VPWR _23464_/Q sky130_fd_sc_hd__dfxtp_4
XPHY_1548 VGND VPWR sky130_fd_sc_hd__tapvpwrvgnd_1
XFILLER_32_1705 VGND VGND VPWR VPWR sky130_fd_sc_hd__decap_6
XFILLER_17_1251 VGND VGND VPWR VPWR sky130_fd_sc_hd__fill_2
XANTENNA__22079__B2 _22078_/X VGND VGND VPWR VPWR sky130_fd_sc_hd__diode_2
XPHY_1559 VGND VPWR sky130_fd_sc_hd__tapvpwrvgnd_1
X_22415_ _22412_/X _22414_/X _12114_/B _22409_/X VGND VGND VPWR VPWR _23283_/D sky130_fd_sc_hd__o22a_4
XFILLER_10_158 VGND VGND VPWR VPWR sky130_fd_sc_hd__decap_8
XANTENNA__17487__A _12680_/X VGND VGND VPWR VPWR sky130_fd_sc_hd__diode_2
X_23395_ _24040_/CLK _23395_/D VGND VGND VPWR VPWR _15829_/B sky130_fd_sc_hd__dfxtp_4
XANTENNA__20625__B _20624_/X VGND VGND VPWR VPWR sky130_fd_sc_hd__diode_2
X_22346_ _23324_/Q VGND VGND VPWR VPWR _22346_/X sky130_fd_sc_hd__buf_2
XANTENNA__12319__A1 _11856_/A VGND VGND VPWR VPWR sky130_fd_sc_hd__diode_2
XANTENNA__12319__B2 _12318_/X VGND VGND VPWR VPWR sky130_fd_sc_hd__diode_2
X_22277_ _22284_/A VGND VGND VPWR VPWR _22277_/X sky130_fd_sc_hd__buf_2
XANTENNA__12424__A _12466_/A VGND VGND VPWR VPWR sky130_fd_sc_hd__diode_2
X_12030_ _11885_/X VGND VGND VPWR VPWR _16702_/A sky130_fd_sc_hd__buf_2
XANTENNA__22840__B _14483_/Y VGND VGND VPWR VPWR sky130_fd_sc_hd__diode_2
X_21228_ _20938_/X _21226_/X _14737_/B _21223_/X VGND VGND VPWR VPWR _23961_/D sky130_fd_sc_hd__o22a_4
X_24016_ _23438_/CLK _24016_/D VGND VGND VPWR VPWR _16406_/B sky130_fd_sc_hd__dfxtp_4
XFILLER_3_869 VGND VGND VPWR VPWR sky130_fd_sc_hd__fill_1
XANTENNA__21054__A2 _21052_/X VGND VGND VPWR VPWR sky130_fd_sc_hd__diode_2
XFILLER_78_615 VGND VGND VPWR VPWR sky130_fd_sc_hd__decap_6
XANTENNA__12143__B _23571_/Q VGND VGND VPWR VPWR sky130_fd_sc_hd__diode_2
XFILLER_117_1637 VGND VGND VPWR VPWR sky130_fd_sc_hd__decap_8
XFILLER_117_1648 VGND VGND VPWR VPWR sky130_fd_sc_hd__decap_12
XANTENNA__15735__A _12783_/X VGND VGND VPWR VPWR sky130_fd_sc_hd__diode_2
X_21159_ _21152_/A VGND VGND VPWR VPWR _21159_/X sky130_fd_sc_hd__buf_2
XFILLER_104_285 VGND VGND VPWR VPWR sky130_fd_sc_hd__decap_4
XFILLER_77_125 VGND VGND VPWR VPWR sky130_fd_sc_hd__decap_8
XFILLER_8_1430 VGND VGND VPWR VPWR sky130_fd_sc_hd__decap_4
XANTENNA__18111__A _18111_/A VGND VGND VPWR VPWR sky130_fd_sc_hd__diode_2
XFILLER_93_607 VGND VGND VPWR VPWR sky130_fd_sc_hd__decap_3
XANTENNA__18207__B1 _18206_/X VGND VGND VPWR VPWR sky130_fd_sc_hd__diode_2
XFILLER_63_1282 VGND VGND VPWR VPWR sky130_fd_sc_hd__decap_12
XANTENNA__15454__B _15454_/B VGND VGND VPWR VPWR sky130_fd_sc_hd__diode_2
X_13981_ _13981_/A _13981_/B VGND VGND VPWR VPWR _13981_/X sky130_fd_sc_hd__and2_4
XFILLER_8_1496 VGND VGND VPWR VPWR sky130_fd_sc_hd__decap_12
X_15720_ _13120_/A _15720_/B VGND VGND VPWR VPWR _15721_/C sky130_fd_sc_hd__or2_4
XANTENNA__13255__A _13224_/A VGND VGND VPWR VPWR sky130_fd_sc_hd__diode_2
X_12932_ _12939_/A _12932_/B VGND VGND VPWR VPWR _12932_/X sky130_fd_sc_hd__or2_4
XFILLER_46_534 VGND VGND VPWR VPWR sky130_fd_sc_hd__decap_3
XANTENNA__20565__B2 _20519_/X VGND VGND VPWR VPWR sky130_fd_sc_hd__diode_2
XFILLER_111_1258 VGND VGND VPWR VPWR sky130_fd_sc_hd__fill_1
X_15651_ _15650_/X VGND VGND VPWR VPWR _15652_/A sky130_fd_sc_hd__buf_2
XFILLER_59_1329 VGND VGND VPWR VPWR sky130_fd_sc_hd__decap_8
XFILLER_46_567 VGND VGND VPWR VPWR sky130_fd_sc_hd__decap_12
X_12863_ _12863_/A _24041_/Q VGND VGND VPWR VPWR _12865_/B sky130_fd_sc_hd__or2_4
XANTENNA__16566__A _16597_/A VGND VGND VPWR VPWR sky130_fd_sc_hd__diode_2
XANTENNA__22306__A2 _22301_/X VGND VGND VPWR VPWR sky130_fd_sc_hd__diode_2
X_14602_ _15427_/A _14600_/X _14602_/C VGND VGND VPWR VPWR _14603_/C sky130_fd_sc_hd__and3_4
X_11814_ _12978_/A VGND VGND VPWR VPWR _13565_/A sky130_fd_sc_hd__buf_2
X_18370_ _18358_/X _18370_/B VGND VGND VPWR VPWR _18371_/A sky130_fd_sc_hd__and2_4
XFILLER_27_792 VGND VGND VPWR VPWR sky130_fd_sc_hd__fill_1
X_15582_ _11855_/A _11629_/A _15551_/X _12264_/A _15581_/X VGND VGND VPWR VPWR _15582_/X
+ sky130_fd_sc_hd__a32o_4
X_12794_ _12833_/A _12794_/B VGND VGND VPWR VPWR _12794_/X sky130_fd_sc_hd__or2_4
XFILLER_37_1616 VGND VGND VPWR VPWR sky130_fd_sc_hd__fill_1
XPHY_3440 VGND VPWR sky130_fd_sc_hd__tapvpwrvgnd_1
XFILLER_109_1121 VGND VGND VPWR VPWR sky130_fd_sc_hd__fill_1
XPHY_3451 VGND VPWR sky130_fd_sc_hd__tapvpwrvgnd_1
X_17321_ _19852_/A _17039_/X _12524_/A _17297_/X VGND VGND VPWR VPWR _17321_/X sky130_fd_sc_hd__o22a_4
X_14533_ _14385_/X _14531_/X _14532_/X VGND VGND VPWR VPWR _14533_/X sky130_fd_sc_hd__and3_4
XPHY_3462 VGND VPWR sky130_fd_sc_hd__tapvpwrvgnd_1
X_11745_ _11788_/A _11923_/B VGND VGND VPWR VPWR _11748_/B sky130_fd_sc_hd__or2_4
XFILLER_30_913 VGND VGND VPWR VPWR sky130_fd_sc_hd__fill_1
XPHY_3473 VGND VPWR sky130_fd_sc_hd__tapvpwrvgnd_1
XANTENNA__17194__B1 _14702_/B VGND VGND VPWR VPWR sky130_fd_sc_hd__diode_2
XANTENNA__14086__A _14086_/A VGND VGND VPWR VPWR sky130_fd_sc_hd__diode_2
XPHY_3484 VGND VPWR sky130_fd_sc_hd__tapvpwrvgnd_1
XFILLER_57_1097 VGND VGND VPWR VPWR sky130_fd_sc_hd__fill_1
XANTENNA__18930__A1 _14260_/X VGND VGND VPWR VPWR sky130_fd_sc_hd__diode_2
XANTENNA__18781__A _18781_/A VGND VGND VPWR VPWR sky130_fd_sc_hd__diode_2
XPHY_3495 VGND VPWR sky130_fd_sc_hd__tapvpwrvgnd_1
XPHY_2750 VGND VPWR sky130_fd_sc_hd__tapvpwrvgnd_1
XPHY_2761 VGND VPWR sky130_fd_sc_hd__tapvpwrvgnd_1
X_17252_ _17047_/X _17251_/X _17051_/X VGND VGND VPWR VPWR _17252_/Y sky130_fd_sc_hd__o21ai_4
XANTENNA__24472__CLK _24254_/CLK VGND VGND VPWR VPWR sky130_fd_sc_hd__diode_2
X_14464_ _12446_/A _14464_/B _14464_/C VGND VGND VPWR VPWR _14464_/X sky130_fd_sc_hd__and3_4
XPHY_2772 VGND VPWR sky130_fd_sc_hd__tapvpwrvgnd_1
X_11676_ _12947_/A VGND VGND VPWR VPWR _13530_/A sky130_fd_sc_hd__buf_2
XPHY_2783 VGND VPWR sky130_fd_sc_hd__tapvpwrvgnd_1
XPHY_2794 VGND VPWR sky130_fd_sc_hd__tapvpwrvgnd_1
X_16203_ _16203_/A _23565_/Q VGND VGND VPWR VPWR _16203_/X sky130_fd_sc_hd__or2_4
X_13415_ _12788_/A _13407_/X _13414_/X VGND VGND VPWR VPWR _13415_/X sky130_fd_sc_hd__and3_4
XANTENNA__17397__A _13863_/X VGND VGND VPWR VPWR sky130_fd_sc_hd__diode_2
X_17183_ _17132_/Y _17131_/X _15252_/X _17133_/X VGND VGND VPWR VPWR _17183_/X sky130_fd_sc_hd__o22a_4
X_14395_ _12615_/A _14384_/X _14394_/X VGND VGND VPWR VPWR _14395_/X sky130_fd_sc_hd__and3_4