* NGSPICE file created from NfiVe32_SYS.ext - technology: sky130A

* Black-box entry subcircuit for sky130_fd_sc_hd__diode_2 abstract view
.subckt sky130_fd_sc_hd__diode_2 DIODE VGND VNB VPB VPWR
.ends

* Black-box entry subcircuit for sky130_fd_sc_hd__buf_2 abstract view
.subckt sky130_fd_sc_hd__buf_2 A VGND VNB VPB VPWR X
.ends

* Black-box entry subcircuit for sky130_fd_sc_hd__fill_2 abstract view
.subckt sky130_fd_sc_hd__fill_2 VGND VNB VPB VPWR
.ends

* Black-box entry subcircuit for sky130_fd_sc_hd__decap_4 abstract view
.subckt sky130_fd_sc_hd__decap_4 VGND VNB VPB VPWR
.ends

* Black-box entry subcircuit for sky130_fd_sc_hd__nand2_4 abstract view
.subckt sky130_fd_sc_hd__nand2_4 A B VGND VNB VPB VPWR Y
.ends

* Black-box entry subcircuit for sky130_fd_sc_hd__nor2_4 abstract view
.subckt sky130_fd_sc_hd__nor2_4 A B VGND VNB VPB VPWR Y
.ends

* Black-box entry subcircuit for sky130_fd_sc_hd__tapvpwrvgnd_1 abstract view
.subckt sky130_fd_sc_hd__tapvpwrvgnd_1 VGND VPWR
.ends

* Black-box entry subcircuit for sky130_fd_sc_hd__decap_8 abstract view
.subckt sky130_fd_sc_hd__decap_8 VGND VNB VPB VPWR
.ends

* Black-box entry subcircuit for sky130_fd_sc_hd__inv_2 abstract view
.subckt sky130_fd_sc_hd__inv_2 A VGND VNB VPB VPWR Y
.ends

* Black-box entry subcircuit for sky130_fd_sc_hd__dfxtp_4 abstract view
.subckt sky130_fd_sc_hd__dfxtp_4 CLK D VGND VNB VPB VPWR Q
.ends

* Black-box entry subcircuit for sky130_fd_sc_hd__o22a_4 abstract view
.subckt sky130_fd_sc_hd__o22a_4 A1 A2 B1 B2 VGND VNB VPB VPWR X
.ends

* Black-box entry subcircuit for sky130_fd_sc_hd__fill_1 abstract view
.subckt sky130_fd_sc_hd__fill_1 VGND VNB VPB VPWR
.ends

* Black-box entry subcircuit for sky130_fd_sc_hd__a32o_4 abstract view
.subckt sky130_fd_sc_hd__a32o_4 A1 A2 A3 B1 B2 VGND VNB VPB VPWR X
.ends

* Black-box entry subcircuit for sky130_fd_sc_hd__decap_12 abstract view
.subckt sky130_fd_sc_hd__decap_12 VGND VNB VPB VPWR
.ends

* Black-box entry subcircuit for sky130_fd_sc_hd__dfrtp_4 abstract view
.subckt sky130_fd_sc_hd__dfrtp_4 CLK D RESET_B VGND VNB VPB VPWR Q
.ends

* Black-box entry subcircuit for sky130_fd_sc_hd__decap_3 abstract view
.subckt sky130_fd_sc_hd__decap_3 VGND VNB VPB VPWR
.ends

* Black-box entry subcircuit for sky130_fd_sc_hd__o21a_4 abstract view
.subckt sky130_fd_sc_hd__o21a_4 A1 A2 B1 VGND VNB VPB VPWR X
.ends

* Black-box entry subcircuit for sky130_fd_sc_hd__or2_4 abstract view
.subckt sky130_fd_sc_hd__or2_4 A B VGND VNB VPB VPWR X
.ends

* Black-box entry subcircuit for sky130_fd_sc_hd__or3_4 abstract view
.subckt sky130_fd_sc_hd__or3_4 A B C VGND VNB VPB VPWR X
.ends

* Black-box entry subcircuit for sky130_fd_sc_hd__and3_4 abstract view
.subckt sky130_fd_sc_hd__and3_4 A B C VGND VNB VPB VPWR X
.ends

* Black-box entry subcircuit for sky130_fd_sc_hd__a2bb2o_4 abstract view
.subckt sky130_fd_sc_hd__a2bb2o_4 A1_N A2_N B1 B2 VGND VNB VPB VPWR X
.ends

* Black-box entry subcircuit for sky130_fd_sc_hd__clkbuf_1 abstract view
.subckt sky130_fd_sc_hd__clkbuf_1 A VGND VNB VPB VPWR X
.ends

* Black-box entry subcircuit for sky130_fd_sc_hd__and2_4 abstract view
.subckt sky130_fd_sc_hd__and2_4 A B VGND VNB VPB VPWR X
.ends

* Black-box entry subcircuit for sky130_fd_sc_hd__decap_6 abstract view
.subckt sky130_fd_sc_hd__decap_6 VGND VNB VPB VPWR
.ends

* Black-box entry subcircuit for sky130_fd_sc_hd__a211o_4 abstract view
.subckt sky130_fd_sc_hd__a211o_4 A1 A2 B1 C1 VGND VNB VPB VPWR X
.ends

* Black-box entry subcircuit for sky130_fd_sc_hd__a21o_4 abstract view
.subckt sky130_fd_sc_hd__a21o_4 A1 A2 B1 VGND VNB VPB VPWR X
.ends

* Black-box entry subcircuit for sky130_fd_sc_hd__o21ai_4 abstract view
.subckt sky130_fd_sc_hd__o21ai_4 A1 A2 B1 VGND VNB VPB VPWR Y
.ends

* Black-box entry subcircuit for sky130_fd_sc_hd__or4_4 abstract view
.subckt sky130_fd_sc_hd__or4_4 A B C D VGND VNB VPB VPWR X
.ends

* Black-box entry subcircuit for sky130_fd_sc_hd__a21oi_4 abstract view
.subckt sky130_fd_sc_hd__a21oi_4 A1 A2 B1 VGND VNB VPB VPWR Y
.ends

* Black-box entry subcircuit for sky130_fd_sc_hd__dfstp_4 abstract view
.subckt sky130_fd_sc_hd__dfstp_4 CLK D SET_B VGND VNB VPB VPWR Q
.ends

* Black-box entry subcircuit for sky130_fd_sc_hd__a22oi_4 abstract view
.subckt sky130_fd_sc_hd__a22oi_4 A1 A2 B1 B2 VGND VNB VPB VPWR Y
.ends

* Black-box entry subcircuit for sky130_fd_sc_hd__a21bo_4 abstract view
.subckt sky130_fd_sc_hd__a21bo_4 A1 A2 B1_N VGND VNB VPB VPWR X
.ends

* Black-box entry subcircuit for sky130_fd_sc_hd__and4_4 abstract view
.subckt sky130_fd_sc_hd__and4_4 A B C D VGND VNB VPB VPWR X
.ends

* Black-box entry subcircuit for sky130_fd_sc_hd__o32a_4 abstract view
.subckt sky130_fd_sc_hd__o32a_4 A1 A2 A3 B1 B2 VGND VNB VPB VPWR X
.ends

* Black-box entry subcircuit for sky130_fd_sc_hd__a21boi_4 abstract view
.subckt sky130_fd_sc_hd__a21boi_4 A1 A2 B1_N VGND VNB VPB VPWR Y
.ends

* Black-box entry subcircuit for sky130_fd_sc_hd__clkbuf_16 abstract view
.subckt sky130_fd_sc_hd__clkbuf_16 A VGND VNB VPB VPWR X
.ends

* Black-box entry subcircuit for sky130_fd_sc_hd__conb_1 abstract view
.subckt sky130_fd_sc_hd__conb_1 VGND VNB VPB VPWR HI LO
.ends

.subckt NfiVe32_SYS HADDR[0] HADDR[10] HADDR[11] HADDR[12] HADDR[13] HADDR[14] HADDR[15]
+ HADDR[16] HADDR[17] HADDR[18] HADDR[19] HADDR[1] HADDR[20] HADDR[21] HADDR[22] HADDR[23]
+ HADDR[24] HADDR[25] HADDR[26] HADDR[27] HADDR[28] HADDR[29] HADDR[2] HADDR[30] HADDR[31]
+ HADDR[3] HADDR[4] HADDR[5] HADDR[6] HADDR[7] HADDR[8] HADDR[9] HCLK HRDATA[0] HRDATA[10]
+ HRDATA[11] HRDATA[12] HRDATA[13] HRDATA[14] HRDATA[15] HRDATA[16] HRDATA[17] HRDATA[18]
+ HRDATA[19] HRDATA[1] HRDATA[20] HRDATA[21] HRDATA[22] HRDATA[23] HRDATA[24] HRDATA[25]
+ HRDATA[26] HRDATA[27] HRDATA[28] HRDATA[29] HRDATA[2] HRDATA[30] HRDATA[31] HRDATA[3]
+ HRDATA[4] HRDATA[5] HRDATA[6] HRDATA[7] HRDATA[8] HRDATA[9] HREADY HRESETn HSIZE[0]
+ HSIZE[1] HSIZE[2] HTRANS[0] HTRANS[1] HWDATA[0] HWDATA[10] HWDATA[11] HWDATA[12]
+ HWDATA[13] HWDATA[14] HWDATA[15] HWDATA[16] HWDATA[17] HWDATA[18] HWDATA[19] HWDATA[1]
+ HWDATA[20] HWDATA[21] HWDATA[22] HWDATA[23] HWDATA[24] HWDATA[25] HWDATA[26] HWDATA[27]
+ HWDATA[28] HWDATA[29] HWDATA[2] HWDATA[30] HWDATA[31] HWDATA[3] HWDATA[4] HWDATA[5]
+ HWDATA[6] HWDATA[7] HWDATA[8] HWDATA[9] HWRITE IRQ[0] IRQ[10] IRQ[11] IRQ[12] IRQ[13]
+ IRQ[14] IRQ[15] IRQ[16] IRQ[17] IRQ[18] IRQ[19] IRQ[1] IRQ[20] IRQ[21] IRQ[22] IRQ[23]
+ IRQ[24] IRQ[25] IRQ[26] IRQ[27] IRQ[28] IRQ[29] IRQ[2] IRQ[30] IRQ[31] IRQ[3] IRQ[4]
+ IRQ[5] IRQ[6] IRQ[7] IRQ[8] IRQ[9] NMI SYSTICKCLKDIV[0] SYSTICKCLKDIV[1] SYSTICKCLKDIV[2]
+ SYSTICKCLKDIV[3] SYSTICKCLKDIV[4] SYSTICKCLKDIV[5] SYSTICKCLKDIV[6] SYSTICKCLKDIV[7]
+ VPWR VGND
XANTENNA__21378__B1 _15839_/B VGND VGND VPWR VPWR sky130_fd_sc_hd__diode_2
XANTENNA__15814__B _23885_/Q VGND VGND VPWR VPWR sky130_fd_sc_hd__diode_2
X_18869_ _20425_/A VGND VGND VPWR VPWR _20407_/A sky130_fd_sc_hd__buf_2
XFILLER_82_501 VGND VGND VPWR VPWR sky130_fd_sc_hd__fill_2
XANTENNA__18794__A1 _15646_/X VGND VGND VPWR VPWR sky130_fd_sc_hd__diode_2
XANTENNA__16198__A _16198_/A VGND VGND VPWR VPWR sky130_fd_sc_hd__diode_2
XFILLER_67_586 VGND VGND VPWR VPWR sky130_fd_sc_hd__decap_4
X_20900_ _24387_/Q _20556_/A VGND VGND VPWR VPWR _20900_/Y sky130_fd_sc_hd__nand2_4
XFILLER_94_372 VGND VGND VPWR VPWR sky130_fd_sc_hd__fill_2
XANTENNA__13615__A _12475_/A VGND VGND VPWR VPWR sky130_fd_sc_hd__diode_2
X_21880_ _21887_/A VGND VGND VPWR VPWR _21880_/X sky130_fd_sc_hd__buf_2
XANTENNA__22928__A _18570_/X VGND VGND VPWR VPWR sky130_fd_sc_hd__diode_2
X_20831_ _20825_/X _20831_/B VGND VGND VPWR VPWR _20831_/Y sky130_fd_sc_hd__nor2_4
XPHY_3109 VGND VPWR sky130_fd_sc_hd__tapvpwrvgnd_1
XFILLER_36_973 VGND VGND VPWR VPWR sky130_fd_sc_hd__fill_2
XFILLER_35_461 VGND VGND VPWR VPWR sky130_fd_sc_hd__decap_8
XANTENNA__15830__A _12522_/A VGND VGND VPWR VPWR sky130_fd_sc_hd__diode_2
X_20762_ _20762_/A VGND VGND VPWR VPWR _20762_/Y sky130_fd_sc_hd__inv_2
X_23550_ _23320_/CLK _23550_/D VGND VGND VPWR VPWR _23550_/Q sky130_fd_sc_hd__dfxtp_4
XANTENNA__19302__A _19317_/A VGND VGND VPWR VPWR sky130_fd_sc_hd__diode_2
XPHY_2408 VGND VPWR sky130_fd_sc_hd__tapvpwrvgnd_1
XPHY_2419 VGND VPWR sky130_fd_sc_hd__tapvpwrvgnd_1
XANTENNA__20448__A _20255_/A VGND VGND VPWR VPWR sky130_fd_sc_hd__diode_2
X_22501_ _22439_/X _22500_/X _23209_/Q _22497_/X VGND VGND VPWR VPWR _22501_/X sky130_fd_sc_hd__o22a_4
XFILLER_74_1069 VGND VGND VPWR VPWR sky130_fd_sc_hd__decap_8
XPHY_1707 VGND VPWR sky130_fd_sc_hd__tapvpwrvgnd_1
X_23481_ _23514_/CLK _23481_/D VGND VGND VPWR VPWR _23481_/Q sky130_fd_sc_hd__dfxtp_4
XFILLER_22_144 VGND VGND VPWR VPWR sky130_fd_sc_hd__fill_1
XANTENNA__24239__RESET_B HRESETn VGND VGND VPWR VPWR sky130_fd_sc_hd__diode_2
X_20693_ _20673_/X _20679_/Y _20690_/X _20691_/Y _20692_/X VGND VGND VPWR VPWR _20693_/X
+ sky130_fd_sc_hd__a32o_4
XPHY_1718 VGND VPWR sky130_fd_sc_hd__tapvpwrvgnd_1
XPHY_1729 VGND VPWR sky130_fd_sc_hd__tapvpwrvgnd_1
XANTENNA_clkbuf_5_13_0_HCLK_A clkbuf_4_6_0_HCLK/X VGND VGND VPWR VPWR sky130_fd_sc_hd__diode_2
X_22432_ _20696_/A VGND VGND VPWR VPWR _22432_/X sky130_fd_sc_hd__buf_2
XANTENNA__13350__A _13349_/X VGND VGND VPWR VPWR sky130_fd_sc_hd__diode_2
XFILLER_17_1465 VGND VGND VPWR VPWR sky130_fd_sc_hd__decap_12
XANTENNA__24157__CLK _24293_/CLK VGND VGND VPWR VPWR sky130_fd_sc_hd__diode_2
X_22363_ _22115_/X _22361_/X _15795_/B _22358_/X VGND VGND VPWR VPWR _23277_/D sky130_fd_sc_hd__o22a_4
XFILLER_108_205 VGND VGND VPWR VPWR sky130_fd_sc_hd__fill_1
XANTENNA__16661__A _16624_/X VGND VGND VPWR VPWR sky130_fd_sc_hd__diode_2
X_21314_ _21237_/X _21312_/X _16124_/B _21309_/X VGND VGND VPWR VPWR _23895_/D sky130_fd_sc_hd__o22a_4
X_24102_ _24321_/CLK _24102_/D HRESETn VGND VGND VPWR VPWR _22741_/A sky130_fd_sc_hd__dfrtp_4
XFILLER_108_249 VGND VGND VPWR VPWR sky130_fd_sc_hd__fill_1
X_22294_ _22136_/X _22293_/X _14652_/B _22290_/X VGND VGND VPWR VPWR _23332_/D sky130_fd_sc_hd__o22a_4
XANTENNA__16380__B _16380_/B VGND VGND VPWR VPWR sky130_fd_sc_hd__diode_2
X_24033_ _23145_/CLK _21055_/X VGND VGND VPWR VPWR _15159_/B sky130_fd_sc_hd__dfxtp_4
X_21245_ _21244_/X _21235_/X _23924_/Q _21242_/X VGND VGND VPWR VPWR _23924_/D sky130_fd_sc_hd__o22a_4
XFILLER_2_516 VGND VGND VPWR VPWR sky130_fd_sc_hd__decap_3
XANTENNA__15277__A _15023_/A VGND VGND VPWR VPWR sky130_fd_sc_hd__diode_2
XANTENNA__19972__A _19996_/A VGND VGND VPWR VPWR sky130_fd_sc_hd__diode_2
XANTENNA__23181__CLK _23564_/CLK VGND VGND VPWR VPWR sky130_fd_sc_hd__diode_2
XANTENNA__14181__A _11708_/A VGND VGND VPWR VPWR sky130_fd_sc_hd__diode_2
XFILLER_77_15 VGND VGND VPWR VPWR sky130_fd_sc_hd__decap_4
XFILLER_46_1127 VGND VGND VPWR VPWR sky130_fd_sc_hd__fill_2
X_21176_ _21183_/A VGND VGND VPWR VPWR _21176_/X sky130_fd_sc_hd__buf_2
XFILLER_46_1138 VGND VGND VPWR VPWR sky130_fd_sc_hd__decap_3
XFILLER_8_1600 VGND VGND VPWR VPWR sky130_fd_sc_hd__fill_1
XFILLER_81_1029 VGND VGND VPWR VPWR sky130_fd_sc_hd__decap_8
XFILLER_77_306 VGND VGND VPWR VPWR sky130_fd_sc_hd__decap_8
XFILLER_89_166 VGND VGND VPWR VPWR sky130_fd_sc_hd__fill_1
X_20127_ _18603_/Y _18688_/X _20126_/X VGND VGND VPWR VPWR _20128_/B sky130_fd_sc_hd__o21a_4
XFILLER_77_328 VGND VGND VPWR VPWR sky130_fd_sc_hd__fill_1
XANTENNA__17492__A _17194_/X VGND VGND VPWR VPWR sky130_fd_sc_hd__diode_2
XANTENNA__17037__A1 _18864_/C VGND VGND VPWR VPWR sky130_fd_sc_hd__diode_2
XFILLER_4_1508 VGND VGND VPWR VPWR sky130_fd_sc_hd__decap_12
X_20058_ _20058_/A VGND VGND VPWR VPWR _20058_/Y sky130_fd_sc_hd__inv_2
XANTENNA__22030__B2 _22028_/X VGND VGND VPWR VPWR sky130_fd_sc_hd__diode_2
XANTENNA__15724__B _15724_/B VGND VGND VPWR VPWR sky130_fd_sc_hd__diode_2
XFILLER_86_884 VGND VGND VPWR VPWR sky130_fd_sc_hd__fill_1
XANTENNA__18785__A1 _13274_/X VGND VGND VPWR VPWR sky130_fd_sc_hd__diode_2
X_11900_ _15956_/A VGND VGND VPWR VPWR _15952_/A sky130_fd_sc_hd__buf_2
XANTENNA__13525__A _12981_/A VGND VGND VPWR VPWR sky130_fd_sc_hd__diode_2
XANTENNA__22581__A2 _22579_/X VGND VGND VPWR VPWR sky130_fd_sc_hd__diode_2
X_12880_ _12880_/A VGND VGND VPWR VPWR _13951_/A sky130_fd_sc_hd__buf_2
XFILLER_6_1390 VGND VGND VPWR VPWR sky130_fd_sc_hd__decap_8
X_11831_ _11821_/A _12014_/B VGND VGND VPWR VPWR _11831_/X sky130_fd_sc_hd__or2_4
X_23817_ _23910_/CLK _23817_/D VGND VGND VPWR VPWR _23817_/Q sky130_fd_sc_hd__dfxtp_4
XFILLER_96_1250 VGND VGND VPWR VPWR sky130_fd_sc_hd__fill_1
XPHY_3610 VGND VPWR sky130_fd_sc_hd__tapvpwrvgnd_1
XFILLER_57_1223 VGND VGND VPWR VPWR sky130_fd_sc_hd__decap_12
XPHY_3621 VGND VPWR sky130_fd_sc_hd__tapvpwrvgnd_1
XANTENNA__15740__A _12777_/X VGND VGND VPWR VPWR sky130_fd_sc_hd__diode_2
X_14550_ _13695_/X _14486_/B VGND VGND VPWR VPWR _14550_/X sky130_fd_sc_hd__or2_4
XPHY_3632 VGND VPWR sky130_fd_sc_hd__tapvpwrvgnd_1
X_11762_ _11747_/X _11751_/X _11761_/X VGND VGND VPWR VPWR _11763_/C sky130_fd_sc_hd__or3_4
X_23748_ _23363_/CLK _23748_/D VGND VGND VPWR VPWR _14662_/B sky130_fd_sc_hd__dfxtp_4
XFILLER_42_943 VGND VGND VPWR VPWR sky130_fd_sc_hd__decap_3
XPHY_3643 VGND VPWR sky130_fd_sc_hd__tapvpwrvgnd_1
XANTENNA__20358__A _20342_/A VGND VGND VPWR VPWR sky130_fd_sc_hd__diode_2
XPHY_2920 VGND VPWR sky130_fd_sc_hd__tapvpwrvgnd_1
X_13501_ _12965_/A VGND VGND VPWR VPWR _15879_/A sky130_fd_sc_hd__buf_2
XFILLER_14_656 VGND VGND VPWR VPWR sky130_fd_sc_hd__decap_12
XPHY_2931 VGND VPWR sky130_fd_sc_hd__tapvpwrvgnd_1
XPHY_2942 VGND VPWR sky130_fd_sc_hd__tapvpwrvgnd_1
X_14481_ _12465_/A _14479_/X _14481_/C VGND VGND VPWR VPWR _14482_/C sky130_fd_sc_hd__and3_4
X_11693_ _11644_/A VGND VGND VPWR VPWR _14178_/A sky130_fd_sc_hd__buf_2
X_23679_ _23217_/CLK _23679_/D VGND VGND VPWR VPWR _23679_/Q sky130_fd_sc_hd__dfxtp_4
XFILLER_9_104 VGND VGND VPWR VPWR sky130_fd_sc_hd__decap_3
XPHY_2953 VGND VPWR sky130_fd_sc_hd__tapvpwrvgnd_1
XPHY_2964 VGND VPWR sky130_fd_sc_hd__tapvpwrvgnd_1
X_16220_ _16227_/A _16220_/B VGND VGND VPWR VPWR _16220_/X sky130_fd_sc_hd__or2_4
XANTENNA__13260__A _13260_/A VGND VGND VPWR VPWR sky130_fd_sc_hd__diode_2
XPHY_2975 VGND VPWR sky130_fd_sc_hd__tapvpwrvgnd_1
X_13432_ _11913_/X _13430_/X _13431_/X VGND VGND VPWR VPWR _13433_/C sky130_fd_sc_hd__and3_4
XFILLER_9_137 VGND VGND VPWR VPWR sky130_fd_sc_hd__decap_12
XPHY_2986 VGND VPWR sky130_fd_sc_hd__tapvpwrvgnd_1
XANTENNA__22097__B2 _22096_/X VGND VGND VPWR VPWR sky130_fd_sc_hd__diode_2
XPHY_2997 VGND VPWR sky130_fd_sc_hd__tapvpwrvgnd_1
XANTENNA__19866__B _19866_/B VGND VGND VPWR VPWR sky130_fd_sc_hd__diode_2
XANTENNA__14075__B _14073_/X VGND VGND VPWR VPWR sky130_fd_sc_hd__diode_2
XFILLER_107_1081 VGND VGND VPWR VPWR sky130_fd_sc_hd__fill_1
X_16151_ _16151_/A _16149_/X _16150_/X VGND VGND VPWR VPWR _16151_/X sky130_fd_sc_hd__and3_4
XANTENNA__19368__A2_N _17775_/X VGND VGND VPWR VPWR sky130_fd_sc_hd__diode_2
XANTENNA__21844__A1 _21843_/X VGND VGND VPWR VPWR sky130_fd_sc_hd__diode_2
X_13363_ _11681_/X _13356_/X _13363_/C VGND VGND VPWR VPWR _13363_/X sky130_fd_sc_hd__or3_4
XFILLER_42_95 VGND VGND VPWR VPWR sky130_fd_sc_hd__decap_12
XANTENNA__17667__A _17667_/A VGND VGND VPWR VPWR sky130_fd_sc_hd__diode_2
XANTENNA__22256__A2_N _22255_/X VGND VGND VPWR VPWR sky130_fd_sc_hd__diode_2
XANTENNA__21844__B2 _21836_/X VGND VGND VPWR VPWR sky130_fd_sc_hd__diode_2
XANTENNA__23524__CLK _23107_/CLK VGND VGND VPWR VPWR sky130_fd_sc_hd__diode_2
X_15102_ _15069_/A _23071_/Q VGND VGND VPWR VPWR _15102_/X sky130_fd_sc_hd__or2_4
X_12314_ _15553_/A VGND VGND VPWR VPWR _12315_/A sky130_fd_sc_hd__buf_2
X_16082_ _13442_/X VGND VGND VPWR VPWR _16083_/A sky130_fd_sc_hd__buf_2
X_13294_ _13286_/X _24016_/Q VGND VGND VPWR VPWR _13294_/X sky130_fd_sc_hd__or2_4
XFILLER_5_343 VGND VGND VPWR VPWR sky130_fd_sc_hd__fill_1
XANTENNA__16290__B _16368_/B VGND VGND VPWR VPWR sky130_fd_sc_hd__diode_2
X_15033_ _13925_/A _15033_/B VGND VGND VPWR VPWR _15035_/B sky130_fd_sc_hd__or2_4
X_19910_ _22723_/A VGND VGND VPWR VPWR _19910_/X sky130_fd_sc_hd__buf_2
X_12245_ _12235_/A VGND VGND VPWR VPWR _12725_/A sky130_fd_sc_hd__buf_2
XFILLER_29_1325 VGND VGND VPWR VPWR sky130_fd_sc_hd__decap_12
XFILLER_107_293 VGND VGND VPWR VPWR sky130_fd_sc_hd__decap_12
X_12176_ _11773_/X _12174_/X _12175_/X VGND VGND VPWR VPWR _12176_/X sky130_fd_sc_hd__and3_4
X_19841_ _19841_/A VGND VGND VPWR VPWR _21297_/A sky130_fd_sc_hd__buf_2
XFILLER_29_1358 VGND VGND VPWR VPWR sky130_fd_sc_hd__decap_8
XANTENNA__13419__B _13336_/B VGND VGND VPWR VPWR sky130_fd_sc_hd__diode_2
XANTENNA__12323__B _12323_/B VGND VGND VPWR VPWR sky130_fd_sc_hd__diode_2
XANTENNA__20821__A HRDATA[7] VGND VGND VPWR VPWR sky130_fd_sc_hd__diode_2
XANTENNA__18498__A _18498_/A VGND VGND VPWR VPWR sky130_fd_sc_hd__diode_2
X_16984_ _17661_/A _16983_/X VGND VGND VPWR VPWR _16984_/X sky130_fd_sc_hd__or2_4
X_19772_ _19873_/B _19592_/A _19640_/X VGND VGND VPWR VPWR _19772_/X sky130_fd_sc_hd__o21a_4
XFILLER_96_648 VGND VGND VPWR VPWR sky130_fd_sc_hd__decap_3
XFILLER_110_436 VGND VGND VPWR VPWR sky130_fd_sc_hd__decap_4
XANTENNA__13837__A1 _13594_/X VGND VGND VPWR VPWR sky130_fd_sc_hd__diode_2
XFILLER_1_593 VGND VGND VPWR VPWR sky130_fd_sc_hd__fill_1
X_15935_ _15934_/X _23512_/Q VGND VGND VPWR VPWR _15935_/X sky130_fd_sc_hd__or2_4
X_18723_ _17738_/X _17739_/X _17738_/X _17739_/X VGND VGND VPWR VPWR _18723_/X sky130_fd_sc_hd__a2bb2o_4
XFILLER_67_70 VGND VGND VPWR VPWR sky130_fd_sc_hd__fill_1
Xclkbuf_7_24_0_HCLK clkbuf_7_25_0_HCLK/A VGND VGND VPWR VPWR _24032_/CLK sky130_fd_sc_hd__clkbuf_1
XFILLER_64_501 VGND VGND VPWR VPWR sky130_fd_sc_hd__fill_2
XFILLER_77_884 VGND VGND VPWR VPWR sky130_fd_sc_hd__fill_1
XANTENNA__18776__A1 _16374_/X VGND VGND VPWR VPWR sky130_fd_sc_hd__diode_2
XANTENNA__13435__A _13463_/A VGND VGND VPWR VPWR sky130_fd_sc_hd__diode_2
X_18654_ _17742_/X _17743_/B _17742_/X _17743_/B VGND VGND VPWR VPWR _18654_/X sky130_fd_sc_hd__a2bb2o_4
XFILLER_114_1085 VGND VGND VPWR VPWR sky130_fd_sc_hd__fill_1
X_15866_ _13507_/X _15862_/X _15866_/C VGND VGND VPWR VPWR _15866_/X sky130_fd_sc_hd__or3_4
Xclkbuf_7_87_0_HCLK clkbuf_7_87_0_HCLK/A VGND VGND VPWR VPWR _23326_/CLK sky130_fd_sc_hd__clkbuf_1
XFILLER_91_320 VGND VGND VPWR VPWR sky130_fd_sc_hd__decap_4
XFILLER_97_1036 VGND VGND VPWR VPWR sky130_fd_sc_hd__fill_1
XANTENNA__21780__B1 _23617_/Q VGND VGND VPWR VPWR sky130_fd_sc_hd__diode_2
XFILLER_64_556 VGND VGND VPWR VPWR sky130_fd_sc_hd__fill_1
XFILLER_18_951 VGND VGND VPWR VPWR sky130_fd_sc_hd__fill_2
X_14817_ _11766_/A _14817_/B _14817_/C VGND VGND VPWR VPWR _14818_/C sky130_fd_sc_hd__and3_4
X_17605_ _17605_/A VGND VGND VPWR VPWR _18621_/B sky130_fd_sc_hd__inv_2
XANTENNA__21652__A _21659_/A VGND VGND VPWR VPWR sky130_fd_sc_hd__diode_2
XANTENNA__13154__B _23985_/Q VGND VGND VPWR VPWR sky130_fd_sc_hd__diode_2
X_18585_ _17618_/C _18585_/B VGND VGND VPWR VPWR _18585_/Y sky130_fd_sc_hd__nand2_4
X_15797_ _15820_/A _15793_/X _15797_/C VGND VGND VPWR VPWR _15797_/X sky130_fd_sc_hd__or3_4
XFILLER_17_450 VGND VGND VPWR VPWR sky130_fd_sc_hd__decap_12
XANTENNA__16746__A _11782_/A VGND VGND VPWR VPWR sky130_fd_sc_hd__diode_2
X_17536_ _16444_/Y _17016_/X _17023_/X _17535_/Y VGND VGND VPWR VPWR _17570_/A sky130_fd_sc_hd__o22a_4
XFILLER_83_80 VGND VGND VPWR VPWR sky130_fd_sc_hd__decap_8
X_14748_ _14748_/A _14748_/B _14747_/X VGND VGND VPWR VPWR _14748_/X sky130_fd_sc_hd__and3_4
XANTENNA__16465__B _16405_/B VGND VGND VPWR VPWR sky130_fd_sc_hd__diode_2
XFILLER_75_1378 VGND VGND VPWR VPWR sky130_fd_sc_hd__decap_3
X_17467_ _11924_/A _17467_/B VGND VGND VPWR VPWR _17467_/X sky130_fd_sc_hd__and2_4
XFILLER_60_762 VGND VGND VPWR VPWR sky130_fd_sc_hd__fill_1
X_14679_ _14679_/A _14679_/B VGND VGND VPWR VPWR _14679_/X sky130_fd_sc_hd__or2_4
XFILLER_60_773 VGND VGND VPWR VPWR sky130_fd_sc_hd__decap_12
XFILLER_20_615 VGND VGND VPWR VPWR sky130_fd_sc_hd__decap_12
XANTENNA__17751__A2 _17346_/X VGND VGND VPWR VPWR sky130_fd_sc_hd__diode_2
X_16418_ _16083_/A _16416_/X _16418_/C VGND VGND VPWR VPWR _16418_/X sky130_fd_sc_hd__and3_4
X_19206_ _24257_/Q _19206_/B VGND VGND VPWR VPWR _19207_/B sky130_fd_sc_hd__and2_4
XFILLER_53_1643 VGND VGND VPWR VPWR sky130_fd_sc_hd__decap_4
XFILLER_53_1654 VGND VGND VPWR VPWR sky130_fd_sc_hd__fill_1
X_17398_ _17395_/X _17397_/X VGND VGND VPWR VPWR _17603_/B sky130_fd_sc_hd__and2_4
XFILLER_14_1616 VGND VGND VPWR VPWR sky130_fd_sc_hd__fill_1
XANTENNA__22483__A _22483_/A VGND VGND VPWR VPWR sky130_fd_sc_hd__diode_2
X_19137_ _19137_/A _19136_/X VGND VGND VPWR VPWR _19137_/X sky130_fd_sc_hd__and2_4
X_16349_ _16303_/X _16347_/X _16348_/X VGND VGND VPWR VPWR _16349_/X sky130_fd_sc_hd__and3_4
XFILLER_9_693 VGND VGND VPWR VPWR sky130_fd_sc_hd__fill_1
XANTENNA__16481__A _11666_/X VGND VGND VPWR VPWR sky130_fd_sc_hd__diode_2
X_19068_ _19068_/A VGND VGND VPWR VPWR _19068_/Y sky130_fd_sc_hd__inv_2
X_18019_ _18011_/X _17894_/X _18014_/Y _18016_/X _18018_/X VGND VGND VPWR VPWR _18019_/X
+ sky130_fd_sc_hd__a32o_4
XANTENNA__12514__A _13014_/A VGND VGND VPWR VPWR sky130_fd_sc_hd__diode_2
XFILLER_99_431 VGND VGND VPWR VPWR sky130_fd_sc_hd__fill_1
X_21030_ _21030_/A VGND VGND VPWR VPWR _21030_/X sky130_fd_sc_hd__buf_2
XFILLER_86_1496 VGND VGND VPWR VPWR sky130_fd_sc_hd__fill_1
XFILLER_47_1447 VGND VGND VPWR VPWR sky130_fd_sc_hd__decap_4
XANTENNA__22260__B2 _22255_/X VGND VGND VPWR VPWR sky130_fd_sc_hd__diode_2
XFILLER_59_306 VGND VGND VPWR VPWR sky130_fd_sc_hd__fill_1
XANTENNA__21403__A2_N _21402_/X VGND VGND VPWR VPWR sky130_fd_sc_hd__diode_2
XANTENNA__15825__A _12520_/X VGND VGND VPWR VPWR sky130_fd_sc_hd__diode_2
XANTENNA__20810__A2 _20809_/X VGND VGND VPWR VPWR sky130_fd_sc_hd__diode_2
XFILLER_60_1614 VGND VGND VPWR VPWR sky130_fd_sc_hd__decap_3
XANTENNA__17743__C _17742_/X VGND VGND VPWR VPWR sky130_fd_sc_hd__diode_2
XFILLER_80_1062 VGND VGND VPWR VPWR sky130_fd_sc_hd__decap_6
XANTENNA__22012__B2 _22006_/X VGND VGND VPWR VPWR sky130_fd_sc_hd__diode_2
XANTENNA__15544__B _23563_/Q VGND VGND VPWR VPWR sky130_fd_sc_hd__diode_2
X_22981_ _18334_/X _23004_/B VGND VGND VPWR VPWR _22981_/X sky130_fd_sc_hd__or2_4
XFILLER_68_884 VGND VGND VPWR VPWR sky130_fd_sc_hd__fill_1
XANTENNA__22563__A2 _22536_/A VGND VGND VPWR VPWR sky130_fd_sc_hd__diode_2
XANTENNA__13345__A _12859_/A VGND VGND VPWR VPWR sky130_fd_sc_hd__diode_2
X_21932_ _21804_/X _21931_/X _23544_/Q _21928_/X VGND VGND VPWR VPWR _21932_/X sky130_fd_sc_hd__o22a_4
XFILLER_103_57 VGND VGND VPWR VPWR sky130_fd_sc_hd__decap_4
XFILLER_15_409 VGND VGND VPWR VPWR sky130_fd_sc_hd__decap_4
X_21863_ _21293_/A VGND VGND VPWR VPWR _21863_/X sky130_fd_sc_hd__buf_2
XFILLER_83_898 VGND VGND VPWR VPWR sky130_fd_sc_hd__fill_2
XANTENNA__16656__A _16621_/A VGND VGND VPWR VPWR sky130_fd_sc_hd__diode_2
X_23602_ _23986_/CLK _21820_/X VGND VGND VPWR VPWR _23602_/Q sky130_fd_sc_hd__dfxtp_4
XANTENNA__15560__A _15533_/A VGND VGND VPWR VPWR sky130_fd_sc_hd__diode_2
X_20814_ _20616_/X _20802_/X _20757_/X _20813_/Y VGND VGND VPWR VPWR _20814_/X sky130_fd_sc_hd__a211o_4
XFILLER_58_1554 VGND VGND VPWR VPWR sky130_fd_sc_hd__fill_2
X_21794_ _21791_/X _21793_/X _23613_/Q _21788_/X VGND VGND VPWR VPWR _23613_/D sky130_fd_sc_hd__o22a_4
XPHY_905 VGND VPWR sky130_fd_sc_hd__tapvpwrvgnd_1
XPHY_2205 VGND VPWR sky130_fd_sc_hd__tapvpwrvgnd_1
XPHY_916 VGND VPWR sky130_fd_sc_hd__tapvpwrvgnd_1
XANTENNA__20178__A _19313_/A VGND VGND VPWR VPWR sky130_fd_sc_hd__diode_2
XPHY_2216 VGND VPWR sky130_fd_sc_hd__tapvpwrvgnd_1
XPHY_927 VGND VPWR sky130_fd_sc_hd__tapvpwrvgnd_1
XFILLER_35_291 VGND VGND VPWR VPWR sky130_fd_sc_hd__decap_12
XPHY_938 VGND VPWR sky130_fd_sc_hd__tapvpwrvgnd_1
XPHY_2227 VGND VPWR sky130_fd_sc_hd__tapvpwrvgnd_1
X_23533_ _23922_/CLK _21947_/X VGND VGND VPWR VPWR _15802_/B sky130_fd_sc_hd__dfxtp_4
XPHY_949 VGND VPWR sky130_fd_sc_hd__tapvpwrvgnd_1
XPHY_2238 VGND VPWR sky130_fd_sc_hd__tapvpwrvgnd_1
X_20745_ _20634_/A _20744_/X VGND VGND VPWR VPWR _20745_/Y sky130_fd_sc_hd__nand2_4
XPHY_2249 VGND VPWR sky130_fd_sc_hd__tapvpwrvgnd_1
XPHY_1504 VGND VPWR sky130_fd_sc_hd__tapvpwrvgnd_1
XANTENNA__14176__A _11638_/A VGND VGND VPWR VPWR sky130_fd_sc_hd__diode_2
XPHY_1515 VGND VPWR sky130_fd_sc_hd__tapvpwrvgnd_1
XANTENNA__17742__A2 _17111_/X VGND VGND VPWR VPWR sky130_fd_sc_hd__diode_2
XPHY_1526 VGND VPWR sky130_fd_sc_hd__tapvpwrvgnd_1
XFILLER_10_103 VGND VGND VPWR VPWR sky130_fd_sc_hd__decap_3
XPHY_1537 VGND VPWR sky130_fd_sc_hd__tapvpwrvgnd_1
X_20676_ HRDATA[13] _20675_/X VGND VGND VPWR VPWR _20676_/X sky130_fd_sc_hd__or2_4
X_23464_ _23304_/CLK _23464_/D VGND VGND VPWR VPWR _23464_/Q sky130_fd_sc_hd__dfxtp_4
XPHY_1548 VGND VPWR sky130_fd_sc_hd__tapvpwrvgnd_1
XFILLER_104_1210 VGND VGND VPWR VPWR sky130_fd_sc_hd__decap_12
XFILLER_10_136 VGND VGND VPWR VPWR sky130_fd_sc_hd__decap_8
XPHY_1559 VGND VPWR sky130_fd_sc_hd__tapvpwrvgnd_1
X_22415_ _22100_/A VGND VGND VPWR VPWR _22415_/X sky130_fd_sc_hd__buf_2
XANTENNA__20629__A2 _20628_/X VGND VGND VPWR VPWR sky130_fd_sc_hd__diode_2
X_23395_ _23270_/CLK _22195_/X VGND VGND VPWR VPWR _14766_/B sky130_fd_sc_hd__dfxtp_4
XANTENNA__16391__A _16002_/A VGND VGND VPWR VPWR sky130_fd_sc_hd__diode_2
XANTENNA__14904__A _14998_/A VGND VGND VPWR VPWR sky130_fd_sc_hd__diode_2
X_22346_ _22086_/X _22340_/X _16253_/B _22344_/X VGND VGND VPWR VPWR _22346_/X sky130_fd_sc_hd__o22a_4
XFILLER_12_87 VGND VGND VPWR VPWR sky130_fd_sc_hd__decap_4
XANTENNA__23697__CLK _23564_/CLK VGND VGND VPWR VPWR sky130_fd_sc_hd__diode_2
X_22277_ _22107_/X _22272_/X _13287_/B _22276_/X VGND VGND VPWR VPWR _23344_/D sky130_fd_sc_hd__o22a_4
XANTENNA__12424__A _12386_/X VGND VGND VPWR VPWR sky130_fd_sc_hd__diode_2
XFILLER_65_1514 VGND VGND VPWR VPWR sky130_fd_sc_hd__decap_8
X_12030_ _12029_/X VGND VGND VPWR VPWR _12031_/B sky130_fd_sc_hd__inv_2
XFILLER_2_335 VGND VGND VPWR VPWR sky130_fd_sc_hd__fill_1
X_21228_ _21227_/X _21223_/X _23931_/Q _21218_/X VGND VGND VPWR VPWR _21228_/X sky130_fd_sc_hd__o22a_4
X_24016_ _23983_/CLK _21087_/X VGND VGND VPWR VPWR _24016_/Q sky130_fd_sc_hd__dfxtp_4
XANTENNA__21054__A2 _21051_/X VGND VGND VPWR VPWR sky130_fd_sc_hd__diode_2
XFILLER_105_764 VGND VGND VPWR VPWR sky130_fd_sc_hd__fill_1
XANTENNA__21737__A _21752_/A VGND VGND VPWR VPWR sky130_fd_sc_hd__diode_2
XANTENNA__13239__B _23953_/Q VGND VGND VPWR VPWR sky130_fd_sc_hd__diode_2
XANTENNA__12143__B _23677_/Q VGND VGND VPWR VPWR sky130_fd_sc_hd__diode_2
XANTENNA__11542__A2 IRQ[3] VGND VGND VPWR VPWR sky130_fd_sc_hd__diode_2
XFILLER_78_637 VGND VGND VPWR VPWR sky130_fd_sc_hd__fill_2
XFILLER_117_1648 VGND VGND VPWR VPWR sky130_fd_sc_hd__decap_12
XANTENNA__15735__A _11741_/X VGND VGND VPWR VPWR sky130_fd_sc_hd__diode_2
X_21159_ _20982_/X _21154_/X _14873_/B _21115_/X VGND VGND VPWR VPWR _21159_/X sky130_fd_sc_hd__o22a_4
XANTENNA__17739__A2_N _17122_/X VGND VGND VPWR VPWR sky130_fd_sc_hd__diode_2
XFILLER_63_1282 VGND VGND VPWR VPWR sky130_fd_sc_hd__fill_1
XANTENNA__22003__B2 _21999_/X VGND VGND VPWR VPWR sky130_fd_sc_hd__diode_2
XANTENNA__15454__B _15454_/B VGND VGND VPWR VPWR sky130_fd_sc_hd__diode_2
X_13981_ _12472_/A _23786_/Q VGND VGND VPWR VPWR _13982_/C sky130_fd_sc_hd__or2_4
XANTENNA__14492__A1 _11842_/A VGND VGND VPWR VPWR sky130_fd_sc_hd__diode_2
XANTENNA__14492__B2 _14491_/X VGND VGND VPWR VPWR sky130_fd_sc_hd__diode_2
X_15720_ _13101_/A _15716_/X _15719_/X VGND VGND VPWR VPWR _15720_/X sky130_fd_sc_hd__or3_4
XANTENNA__13255__A _13243_/A VGND VGND VPWR VPWR sky130_fd_sc_hd__diode_2
X_12932_ _12958_/A _12857_/B VGND VGND VPWR VPWR _12932_/X sky130_fd_sc_hd__or2_4
XANTENNA__17950__A _18171_/A VGND VGND VPWR VPWR sky130_fd_sc_hd__diode_2
XFILLER_111_1247 VGND VGND VPWR VPWR sky130_fd_sc_hd__decap_12
XFILLER_37_62 VGND VGND VPWR VPWR sky130_fd_sc_hd__decap_4
XANTENNA__18222__A3 _18215_/X VGND VGND VPWR VPWR sky130_fd_sc_hd__diode_2
XFILLER_74_865 VGND VGND VPWR VPWR sky130_fd_sc_hd__decap_12
XANTENNA__22568__A _22583_/A VGND VGND VPWR VPWR sky130_fd_sc_hd__diode_2
XFILLER_34_707 VGND VGND VPWR VPWR sky130_fd_sc_hd__decap_4
X_15651_ _15582_/X _15648_/X _15650_/Y VGND VGND VPWR VPWR _15914_/B sky130_fd_sc_hd__a21o_4
X_12863_ _12890_/A VGND VGND VPWR VPWR _12870_/A sky130_fd_sc_hd__buf_2
XFILLER_46_578 VGND VGND VPWR VPWR sky130_fd_sc_hd__fill_2
XANTENNA__16566__A _12011_/A VGND VGND VPWR VPWR sky130_fd_sc_hd__diode_2
XANTENNA__19707__B1 _19445_/A VGND VGND VPWR VPWR sky130_fd_sc_hd__diode_2
X_14602_ _15030_/A _14676_/B VGND VGND VPWR VPWR _14602_/X sky130_fd_sc_hd__or2_4
X_11814_ _11819_/A _11814_/B VGND VGND VPWR VPWR _11814_/X sky130_fd_sc_hd__or2_4
X_18370_ _17874_/A _18392_/B VGND VGND VPWR VPWR _18370_/Y sky130_fd_sc_hd__nor2_4
X_15582_ _11842_/A _13595_/X _15551_/X _11596_/A _15581_/X VGND VGND VPWR VPWR _15582_/X
+ sky130_fd_sc_hd__a32o_4
XFILLER_76_1654 VGND VGND VPWR VPWR sky130_fd_sc_hd__decap_6
XFILLER_96_1080 VGND VGND VPWR VPWR sky130_fd_sc_hd__fill_2
X_12794_ _12794_/A VGND VGND VPWR VPWR _12795_/A sky130_fd_sc_hd__buf_2
XANTENNA__20088__A _20071_/B VGND VGND VPWR VPWR sky130_fd_sc_hd__diode_2
XPHY_3440 VGND VPWR sky130_fd_sc_hd__tapvpwrvgnd_1
XFILLER_72_1507 VGND VGND VPWR VPWR sky130_fd_sc_hd__decap_6
XFILLER_14_431 VGND VGND VPWR VPWR sky130_fd_sc_hd__decap_12
XPHY_3451 VGND VPWR sky130_fd_sc_hd__tapvpwrvgnd_1
X_17321_ _18662_/A VGND VGND VPWR VPWR _17321_/Y sky130_fd_sc_hd__inv_2
XFILLER_37_1638 VGND VGND VPWR VPWR sky130_fd_sc_hd__decap_8
X_14533_ _14533_/A _14533_/B VGND VGND VPWR VPWR _14534_/C sky130_fd_sc_hd__or2_4
XPHY_3462 VGND VPWR sky130_fd_sc_hd__tapvpwrvgnd_1
X_11745_ _16229_/A VGND VGND VPWR VPWR _11745_/X sky130_fd_sc_hd__buf_2
XANTENNA__19877__A _19877_/A VGND VGND VPWR VPWR sky130_fd_sc_hd__diode_2
XPHY_3473 VGND VPWR sky130_fd_sc_hd__tapvpwrvgnd_1
XPHY_3484 VGND VPWR sky130_fd_sc_hd__tapvpwrvgnd_1
XFILLER_57_1097 VGND VGND VPWR VPWR sky130_fd_sc_hd__fill_1
XANTENNA__17733__A2 _17106_/X VGND VGND VPWR VPWR sky130_fd_sc_hd__diode_2
XANTENNA__18781__A _18781_/A VGND VGND VPWR VPWR sky130_fd_sc_hd__diode_2
XPHY_3495 VGND VPWR sky130_fd_sc_hd__tapvpwrvgnd_1
XPHY_2750 VGND VPWR sky130_fd_sc_hd__tapvpwrvgnd_1
XPHY_2761 VGND VPWR sky130_fd_sc_hd__tapvpwrvgnd_1
X_17252_ _17249_/A _17811_/A VGND VGND VPWR VPWR _17252_/X sky130_fd_sc_hd__or2_4
X_14464_ _14464_/A _14462_/X _14464_/C VGND VGND VPWR VPWR _14464_/X sky130_fd_sc_hd__and3_4
XPHY_2772 VGND VPWR sky130_fd_sc_hd__tapvpwrvgnd_1
X_11676_ _11737_/A VGND VGND VPWR VPWR _13992_/A sky130_fd_sc_hd__buf_2