* NGSPICE file created from NfiVe32_SYS.ext - technology: sky130A

* Black-box entry subcircuit for sky130_fd_sc_hd__diode_2 abstract view
.subckt sky130_fd_sc_hd__diode_2 DIODE VGND VNB VPB VPWR
.ends

* Black-box entry subcircuit for sky130_fd_sc_hd__o22a_4 abstract view
.subckt sky130_fd_sc_hd__o22a_4 A1 A2 B1 B2 VGND VNB VPB VPWR X
.ends

* Black-box entry subcircuit for sky130_fd_sc_hd__decap_4 abstract view
.subckt sky130_fd_sc_hd__decap_4 VGND VNB VPB VPWR
.ends

* Black-box entry subcircuit for sky130_fd_sc_hd__decap_8 abstract view
.subckt sky130_fd_sc_hd__decap_8 VGND VNB VPB VPWR
.ends

* Black-box entry subcircuit for sky130_fd_sc_hd__inv_2 abstract view
.subckt sky130_fd_sc_hd__inv_2 A VGND VNB VPB VPWR Y
.ends

* Black-box entry subcircuit for sky130_fd_sc_hd__tapvpwrvgnd_1 abstract view
.subckt sky130_fd_sc_hd__tapvpwrvgnd_1 VGND VPWR
.ends

* Black-box entry subcircuit for sky130_fd_sc_hd__decap_6 abstract view
.subckt sky130_fd_sc_hd__decap_6 VGND VNB VPB VPWR
.ends

* Black-box entry subcircuit for sky130_fd_sc_hd__fill_2 abstract view
.subckt sky130_fd_sc_hd__fill_2 VGND VNB VPB VPWR
.ends

* Black-box entry subcircuit for sky130_fd_sc_hd__dfxtp_4 abstract view
.subckt sky130_fd_sc_hd__dfxtp_4 CLK D VGND VNB VPB VPWR Q
.ends

* Black-box entry subcircuit for sky130_fd_sc_hd__decap_3 abstract view
.subckt sky130_fd_sc_hd__decap_3 VGND VNB VPB VPWR
.ends

* Black-box entry subcircuit for sky130_fd_sc_hd__decap_12 abstract view
.subckt sky130_fd_sc_hd__decap_12 VGND VNB VPB VPWR
.ends

* Black-box entry subcircuit for sky130_fd_sc_hd__fill_1 abstract view
.subckt sky130_fd_sc_hd__fill_1 VGND VNB VPB VPWR
.ends

* Black-box entry subcircuit for sky130_fd_sc_hd__buf_2 abstract view
.subckt sky130_fd_sc_hd__buf_2 A VGND VNB VPB VPWR X
.ends

* Black-box entry subcircuit for sky130_fd_sc_hd__and3_4 abstract view
.subckt sky130_fd_sc_hd__and3_4 A B C VGND VNB VPB VPWR X
.ends

* Black-box entry subcircuit for sky130_fd_sc_hd__or2_4 abstract view
.subckt sky130_fd_sc_hd__or2_4 A B VGND VNB VPB VPWR X
.ends

* Black-box entry subcircuit for sky130_fd_sc_hd__a32o_4 abstract view
.subckt sky130_fd_sc_hd__a32o_4 A1 A2 A3 B1 B2 VGND VNB VPB VPWR X
.ends

* Black-box entry subcircuit for sky130_fd_sc_hd__or3_4 abstract view
.subckt sky130_fd_sc_hd__or3_4 A B C VGND VNB VPB VPWR X
.ends

* Black-box entry subcircuit for sky130_fd_sc_hd__o21a_4 abstract view
.subckt sky130_fd_sc_hd__o21a_4 A1 A2 B1 VGND VNB VPB VPWR X
.ends

* Black-box entry subcircuit for sky130_fd_sc_hd__a22oi_4 abstract view
.subckt sky130_fd_sc_hd__a22oi_4 A1 A2 B1 B2 VGND VNB VPB VPWR Y
.ends

* Black-box entry subcircuit for sky130_fd_sc_hd__a21o_4 abstract view
.subckt sky130_fd_sc_hd__a21o_4 A1 A2 B1 VGND VNB VPB VPWR X
.ends

* Black-box entry subcircuit for sky130_fd_sc_hd__clkbuf_1 abstract view
.subckt sky130_fd_sc_hd__clkbuf_1 A VGND VNB VPB VPWR X
.ends

* Black-box entry subcircuit for sky130_fd_sc_hd__a211o_4 abstract view
.subckt sky130_fd_sc_hd__a211o_4 A1 A2 B1 C1 VGND VNB VPB VPWR X
.ends

* Black-box entry subcircuit for sky130_fd_sc_hd__or4_4 abstract view
.subckt sky130_fd_sc_hd__or4_4 A B C D VGND VNB VPB VPWR X
.ends

* Black-box entry subcircuit for sky130_fd_sc_hd__nor2_4 abstract view
.subckt sky130_fd_sc_hd__nor2_4 A B VGND VNB VPB VPWR Y
.ends

* Black-box entry subcircuit for sky130_fd_sc_hd__and2_4 abstract view
.subckt sky130_fd_sc_hd__and2_4 A B VGND VNB VPB VPWR X
.ends

* Black-box entry subcircuit for sky130_fd_sc_hd__o21ai_4 abstract view
.subckt sky130_fd_sc_hd__o21ai_4 A1 A2 B1 VGND VNB VPB VPWR Y
.ends

* Black-box entry subcircuit for sky130_fd_sc_hd__nand2_4 abstract view
.subckt sky130_fd_sc_hd__nand2_4 A B VGND VNB VPB VPWR Y
.ends

* Black-box entry subcircuit for sky130_fd_sc_hd__dfrtp_4 abstract view
.subckt sky130_fd_sc_hd__dfrtp_4 CLK D RESET_B VGND VNB VPB VPWR Q
.ends

* Black-box entry subcircuit for sky130_fd_sc_hd__a2bb2o_4 abstract view
.subckt sky130_fd_sc_hd__a2bb2o_4 A1_N A2_N B1 B2 VGND VNB VPB VPWR X
.ends

* Black-box entry subcircuit for sky130_fd_sc_hd__dfstp_4 abstract view
.subckt sky130_fd_sc_hd__dfstp_4 CLK D SET_B VGND VNB VPB VPWR Q
.ends

* Black-box entry subcircuit for sky130_fd_sc_hd__and4_4 abstract view
.subckt sky130_fd_sc_hd__and4_4 A B C D VGND VNB VPB VPWR X
.ends

* Black-box entry subcircuit for sky130_fd_sc_hd__a21oi_4 abstract view
.subckt sky130_fd_sc_hd__a21oi_4 A1 A2 B1 VGND VNB VPB VPWR Y
.ends

* Black-box entry subcircuit for sky130_fd_sc_hd__clkbuf_16 abstract view
.subckt sky130_fd_sc_hd__clkbuf_16 A VGND VNB VPB VPWR X
.ends

* Black-box entry subcircuit for sky130_fd_sc_hd__a21bo_4 abstract view
.subckt sky130_fd_sc_hd__a21bo_4 A1 A2 B1_N VGND VNB VPB VPWR X
.ends

* Black-box entry subcircuit for sky130_fd_sc_hd__o32a_4 abstract view
.subckt sky130_fd_sc_hd__o32a_4 A1 A2 A3 B1 B2 VGND VNB VPB VPWR X
.ends

* Black-box entry subcircuit for sky130_fd_sc_hd__conb_1 abstract view
.subckt sky130_fd_sc_hd__conb_1 VGND VNB VPB VPWR HI LO
.ends

* Black-box entry subcircuit for sky130_fd_sc_hd__a21boi_4 abstract view
.subckt sky130_fd_sc_hd__a21boi_4 A1 A2 B1_N VGND VNB VPB VPWR Y
.ends

.subckt NfiVe32_SYS HADDR[0] HADDR[10] HADDR[11] HADDR[12] HADDR[13] HADDR[14] HADDR[15]
+ HADDR[16] HADDR[17] HADDR[18] HADDR[19] HADDR[1] HADDR[20] HADDR[21] HADDR[22] HADDR[23]
+ HADDR[24] HADDR[25] HADDR[26] HADDR[27] HADDR[28] HADDR[29] HADDR[2] HADDR[30] HADDR[31]
+ HADDR[3] HADDR[4] HADDR[5] HADDR[6] HADDR[7] HADDR[8] HADDR[9] HCLK HRDATA[0] HRDATA[10]
+ HRDATA[11] HRDATA[12] HRDATA[13] HRDATA[14] HRDATA[15] HRDATA[16] HRDATA[17] HRDATA[18]
+ HRDATA[19] HRDATA[1] HRDATA[20] HRDATA[21] HRDATA[22] HRDATA[23] HRDATA[24] HRDATA[25]
+ HRDATA[26] HRDATA[27] HRDATA[28] HRDATA[29] HRDATA[2] HRDATA[30] HRDATA[31] HRDATA[3]
+ HRDATA[4] HRDATA[5] HRDATA[6] HRDATA[7] HRDATA[8] HRDATA[9] HREADY HRESETn HSIZE[0]
+ HSIZE[1] HSIZE[2] HTRANS[0] HTRANS[1] HWDATA[0] HWDATA[10] HWDATA[11] HWDATA[12]
+ HWDATA[13] HWDATA[14] HWDATA[15] HWDATA[16] HWDATA[17] HWDATA[18] HWDATA[19] HWDATA[1]
+ HWDATA[20] HWDATA[21] HWDATA[22] HWDATA[23] HWDATA[24] HWDATA[25] HWDATA[26] HWDATA[27]
+ HWDATA[28] HWDATA[29] HWDATA[2] HWDATA[30] HWDATA[31] HWDATA[3] HWDATA[4] HWDATA[5]
+ HWDATA[6] HWDATA[7] HWDATA[8] HWDATA[9] HWRITE IRQ[0] IRQ[10] IRQ[11] IRQ[12] IRQ[13]
+ IRQ[14] IRQ[15] IRQ[16] IRQ[17] IRQ[18] IRQ[19] IRQ[1] IRQ[20] IRQ[21] IRQ[22] IRQ[23]
+ IRQ[24] IRQ[25] IRQ[26] IRQ[27] IRQ[28] IRQ[29] IRQ[2] IRQ[30] IRQ[31] IRQ[3] IRQ[4]
+ IRQ[5] IRQ[6] IRQ[7] IRQ[8] IRQ[9] NMI SYSTICKCLKDIV[0] SYSTICKCLKDIV[1] SYSTICKCLKDIV[2]
+ SYSTICKCLKDIV[3] SYSTICKCLKDIV[4] SYSTICKCLKDIV[5] SYSTICKCLKDIV[6] SYSTICKCLKDIV[7]
+ VPWR VGND
XANTENNA__21917__A2 _21916_/X VGND VGND VPWR VPWR sky130_fd_sc_hd__diode_2
XANTENNA__15814__B _15869_/B VGND VGND VPWR VPWR sky130_fd_sc_hd__diode_2
X_18869_ _15651_/X _18863_/X _20727_/A _18864_/X VGND VGND VPWR VPWR _24417_/D sky130_fd_sc_hd__o22a_4
XANTENNA__18794__A1 _17266_/X VGND VGND VPWR VPWR sky130_fd_sc_hd__diode_2
XFILLER_95_895 VGND VGND VPWR VPWR sky130_fd_sc_hd__decap_4
XFILLER_27_428 VGND VGND VPWR VPWR sky130_fd_sc_hd__decap_8
X_20900_ HRDATA[5] VGND VGND VPWR VPWR _20900_/Y sky130_fd_sc_hd__inv_2
XFILLER_39_288 VGND VGND VPWR VPWR sky130_fd_sc_hd__decap_8
X_21880_ _21879_/X _21875_/X _15351_/B _21870_/X VGND VGND VPWR VPWR _21880_/X sky130_fd_sc_hd__o22a_4
XANTENNA__22928__A _22927_/X VGND VGND VPWR VPWR sky130_fd_sc_hd__diode_2
X_20831_ _20782_/X _20830_/X _11523_/A _20789_/X VGND VGND VPWR VPWR _20831_/X sky130_fd_sc_hd__o22a_4
XPHY_3109 VGND VPWR sky130_fd_sc_hd__tapvpwrvgnd_1
XANTENNA__22878__B1 _17397_/Y VGND VGND VPWR VPWR sky130_fd_sc_hd__diode_2
XFILLER_39_1101 VGND VGND VPWR VPWR sky130_fd_sc_hd__decap_6
XFILLER_82_578 VGND VGND VPWR VPWR sky130_fd_sc_hd__fill_2
XFILLER_74_1003 VGND VGND VPWR VPWR sky130_fd_sc_hd__decap_4
XANTENNA__15830__A _12864_/A VGND VGND VPWR VPWR sky130_fd_sc_hd__diode_2
X_23550_ _23997_/CLK _21976_/X VGND VGND VPWR VPWR _23550_/Q sky130_fd_sc_hd__dfxtp_4
X_20762_ _20754_/X _20760_/X _19141_/A _20761_/X VGND VGND VPWR VPWR _20762_/X sky130_fd_sc_hd__o22a_4
XPHY_2408 VGND VPWR sky130_fd_sc_hd__tapvpwrvgnd_1
XFILLER_51_943 VGND VGND VPWR VPWR sky130_fd_sc_hd__decap_3
XFILLER_74_1036 VGND VGND VPWR VPWR sky130_fd_sc_hd__decap_12
XPHY_2419 VGND VPWR sky130_fd_sc_hd__tapvpwrvgnd_1
XANTENNA__21550__B1 _23787_/Q VGND VGND VPWR VPWR sky130_fd_sc_hd__diode_2
XFILLER_168_628 VGND VGND VPWR VPWR sky130_fd_sc_hd__fill_1
X_22501_ _22508_/A VGND VGND VPWR VPWR _22501_/X sky130_fd_sc_hd__buf_2
XPHY_1707 VGND VPWR sky130_fd_sc_hd__tapvpwrvgnd_1
XFILLER_74_1069 VGND VGND VPWR VPWR sky130_fd_sc_hd__decap_8
XANTENNA__24239__RESET_B HRESETn VGND VGND VPWR VPWR sky130_fd_sc_hd__diode_2
X_23481_ _23294_/CLK _22083_/X VGND VGND VPWR VPWR _14834_/B sky130_fd_sc_hd__dfxtp_4
X_20693_ _21283_/A VGND VGND VPWR VPWR _20693_/X sky130_fd_sc_hd__buf_2
XPHY_1718 VGND VPWR sky130_fd_sc_hd__tapvpwrvgnd_1
XPHY_1729 VGND VPWR sky130_fd_sc_hd__tapvpwrvgnd_1
X_22432_ _22117_/A VGND VGND VPWR VPWR _22432_/X sky130_fd_sc_hd__buf_2
XFILLER_149_853 VGND VGND VPWR VPWR sky130_fd_sc_hd__fill_1
XANTENNA__16309__B1 _11608_/A VGND VGND VPWR VPWR sky130_fd_sc_hd__diode_2
XFILLER_149_875 VGND VGND VPWR VPWR sky130_fd_sc_hd__decap_12
XANTENNA__14165__B _23103_/Q VGND VGND VPWR VPWR sky130_fd_sc_hd__diode_2
X_22363_ _22097_/X _22362_/X _12128_/B _22359_/X VGND VGND VPWR VPWR _23315_/D sky130_fd_sc_hd__o22a_4
XFILLER_11_1020 VGND VGND VPWR VPWR sky130_fd_sc_hd__decap_12
X_24102_ _24102_/CLK _20615_/X VGND VGND VPWR VPWR _24102_/Q sky130_fd_sc_hd__dfxtp_4
X_21314_ _21313_/X _21305_/X _14871_/B _21239_/X VGND VGND VPWR VPWR _23926_/D sky130_fd_sc_hd__o22a_4
X_22294_ _22294_/A VGND VGND VPWR VPWR _22294_/X sky130_fd_sc_hd__buf_2
X_24033_ _23303_/CLK _24033_/D VGND VGND VPWR VPWR _24033_/Q sky130_fd_sc_hd__dfxtp_4
XFILLER_105_912 VGND VGND VPWR VPWR sky130_fd_sc_hd__decap_3
X_21245_ _21269_/A VGND VGND VPWR VPWR _21245_/X sky130_fd_sc_hd__buf_2
XANTENNA__15277__A _14169_/A VGND VGND VPWR VPWR sky130_fd_sc_hd__diode_2
XANTENNA__14181__A _14225_/A VGND VGND VPWR VPWR sky130_fd_sc_hd__diode_2
XFILLER_137_1233 VGND VGND VPWR VPWR sky130_fd_sc_hd__decap_12
XANTENNA__20813__C1 _20812_/Y VGND VGND VPWR VPWR sky130_fd_sc_hd__diode_2
XFILLER_172_1124 VGND VGND VPWR VPWR sky130_fd_sc_hd__decap_4
XFILLER_105_967 VGND VGND VPWR VPWR sky130_fd_sc_hd__fill_1
XFILLER_120_904 VGND VGND VPWR VPWR sky130_fd_sc_hd__decap_12
X_21176_ _21136_/A VGND VGND VPWR VPWR _21176_/X sky130_fd_sc_hd__buf_2
XFILLER_104_455 VGND VGND VPWR VPWR sky130_fd_sc_hd__decap_3
XFILLER_117_88 VGND VGND VPWR VPWR sky130_fd_sc_hd__fill_1
XFILLER_81_1029 VGND VGND VPWR VPWR sky130_fd_sc_hd__decap_8
XANTENNA__12413__B _23660_/Q VGND VGND VPWR VPWR sky130_fd_sc_hd__diode_2
XFILLER_77_306 VGND VGND VPWR VPWR sky130_fd_sc_hd__decap_12
XFILLER_77_48 VGND VGND VPWR VPWR sky130_fd_sc_hd__decap_12
X_20127_ _20118_/Y _20126_/X _18960_/X VGND VGND VPWR VPWR _20127_/X sky130_fd_sc_hd__and3_4
XANTENNA__21908__A2 _21902_/X VGND VGND VPWR VPWR sky130_fd_sc_hd__diode_2
XFILLER_58_542 VGND VGND VPWR VPWR sky130_fd_sc_hd__decap_3
X_20058_ _20040_/X _18402_/A _20046_/X _20057_/X VGND VGND VPWR VPWR _20058_/X sky130_fd_sc_hd__o22a_4
XANTENNA__22030__B2 _22028_/X VGND VGND VPWR VPWR sky130_fd_sc_hd__diode_2
XFILLER_86_895 VGND VGND VPWR VPWR sky130_fd_sc_hd__decap_6
X_11900_ _11900_/A VGND VGND VPWR VPWR _12854_/A sky130_fd_sc_hd__buf_2
X_12880_ _12472_/A _12880_/B _12880_/C VGND VGND VPWR VPWR _12881_/C sky130_fd_sc_hd__and3_4
XFILLER_172_3 VGND VGND VPWR VPWR sky130_fd_sc_hd__decap_12
XFILLER_22_1160 VGND VGND VPWR VPWR sky130_fd_sc_hd__fill_2
X_23817_ _24073_/CLK _23817_/D VGND VGND VPWR VPWR _12964_/B sky130_fd_sc_hd__dfxtp_4
X_11831_ _11786_/X _11823_/X _11830_/X VGND VGND VPWR VPWR _11831_/X sky130_fd_sc_hd__and3_4
XPHY_3610 VGND VPWR sky130_fd_sc_hd__tapvpwrvgnd_1
XFILLER_60_206 VGND VGND VPWR VPWR sky130_fd_sc_hd__decap_3
XPHY_3621 VGND VPWR sky130_fd_sc_hd__tapvpwrvgnd_1
XANTENNA__15740__A _11755_/X VGND VGND VPWR VPWR sky130_fd_sc_hd__diode_2
XFILLER_26_472 VGND VGND VPWR VPWR sky130_fd_sc_hd__fill_1
XPHY_3632 VGND VPWR sky130_fd_sc_hd__tapvpwrvgnd_1
X_14550_ _14482_/X _14549_/Y VGND VGND VPWR VPWR _15389_/B sky130_fd_sc_hd__or2_4
XPHY_3643 VGND VPWR sky130_fd_sc_hd__tapvpwrvgnd_1
X_23748_ _23750_/CLK _23748_/D VGND VGND VPWR VPWR _23748_/Q sky130_fd_sc_hd__dfxtp_4
X_11762_ _11742_/X VGND VGND VPWR VPWR _11762_/X sky130_fd_sc_hd__buf_2
XFILLER_60_239 VGND VGND VPWR VPWR sky130_fd_sc_hd__decap_8
XPHY_3654 VGND VPWR sky130_fd_sc_hd__tapvpwrvgnd_1
XANTENNA__20358__A _20358_/A VGND VGND VPWR VPWR sky130_fd_sc_hd__diode_2
XPHY_3665 VGND VPWR sky130_fd_sc_hd__tapvpwrvgnd_1
XFILLER_144_1215 VGND VGND VPWR VPWR sky130_fd_sc_hd__decap_12
XPHY_2920 VGND VPWR sky130_fd_sc_hd__tapvpwrvgnd_1
XPHY_3676 VGND VPWR sky130_fd_sc_hd__tapvpwrvgnd_1
X_13501_ _13532_/A _23781_/Q VGND VGND VPWR VPWR _13501_/X sky130_fd_sc_hd__or2_4
XPHY_2931 VGND VPWR sky130_fd_sc_hd__tapvpwrvgnd_1
XPHY_2942 VGND VPWR sky130_fd_sc_hd__tapvpwrvgnd_1
XFILLER_42_976 VGND VGND VPWR VPWR sky130_fd_sc_hd__fill_1
XPHY_3687 VGND VPWR sky130_fd_sc_hd__tapvpwrvgnd_1
X_14481_ _13016_/A _14458_/X _14465_/X _14472_/X _14480_/X VGND VGND VPWR VPWR _14481_/X
+ sky130_fd_sc_hd__a32o_4
XPHY_3698 VGND VPWR sky130_fd_sc_hd__tapvpwrvgnd_1
X_11693_ _16205_/A VGND VGND VPWR VPWR _11693_/X sky130_fd_sc_hd__buf_2
XPHY_2953 VGND VPWR sky130_fd_sc_hd__tapvpwrvgnd_1
X_23679_ _23679_/CLK _21742_/X VGND VGND VPWR VPWR _23679_/Q sky130_fd_sc_hd__dfxtp_4
XPHY_2964 VGND VPWR sky130_fd_sc_hd__tapvpwrvgnd_1
X_16220_ _16220_/A _16218_/X _16220_/C VGND VGND VPWR VPWR _16221_/C sky130_fd_sc_hd__and3_4
XANTENNA__13260__A _12978_/A VGND VGND VPWR VPWR sky130_fd_sc_hd__diode_2
XPHY_2975 VGND VPWR sky130_fd_sc_hd__tapvpwrvgnd_1
X_13432_ _13431_/X _23301_/Q VGND VGND VPWR VPWR _13433_/C sky130_fd_sc_hd__or2_4
XPHY_2986 VGND VPWR sky130_fd_sc_hd__tapvpwrvgnd_1
XPHY_2997 VGND VPWR sky130_fd_sc_hd__tapvpwrvgnd_1
XFILLER_139_352 VGND VGND VPWR VPWR sky130_fd_sc_hd__fill_1
XFILLER_167_672 VGND VGND VPWR VPWR sky130_fd_sc_hd__decap_12
XFILLER_139_363 VGND VGND VPWR VPWR sky130_fd_sc_hd__decap_3
XFILLER_42_84 VGND VGND VPWR VPWR sky130_fd_sc_hd__decap_8
X_16151_ _16116_/A _16151_/B _16150_/X VGND VGND VPWR VPWR _16151_/X sky130_fd_sc_hd__and3_4
X_13363_ _13415_/A _13363_/B _13363_/C VGND VGND VPWR VPWR _13363_/X sky130_fd_sc_hd__and3_4
XANTENNA__21844__B2 _21834_/X VGND VGND VPWR VPWR sky130_fd_sc_hd__diode_2
XANTENNA__17667__A _17667_/A VGND VGND VPWR VPWR sky130_fd_sc_hd__diode_2
XFILLER_155_845 VGND VGND VPWR VPWR sky130_fd_sc_hd__decap_6
X_15102_ _15078_/A _15102_/B _15101_/X VGND VGND VPWR VPWR _15102_/X sky130_fd_sc_hd__and3_4
X_12314_ _13184_/A _12314_/B VGND VGND VPWR VPWR _12315_/C sky130_fd_sc_hd__or2_4
XFILLER_127_558 VGND VGND VPWR VPWR sky130_fd_sc_hd__fill_1
XFILLER_6_855 VGND VGND VPWR VPWR sky130_fd_sc_hd__fill_2
X_16082_ _11759_/X _16078_/X _16081_/X VGND VGND VPWR VPWR _16082_/X sky130_fd_sc_hd__or3_4
X_13294_ _13320_/A _13294_/B VGND VGND VPWR VPWR _13294_/X sky130_fd_sc_hd__or2_4
XFILLER_6_866 VGND VGND VPWR VPWR sky130_fd_sc_hd__decap_12
XFILLER_120_1270 VGND VGND VPWR VPWR sky130_fd_sc_hd__decap_6
XFILLER_114_208 VGND VGND VPWR VPWR sky130_fd_sc_hd__fill_2
X_19910_ _23083_/D _19909_/X VGND VGND VPWR VPWR _19910_/X sky130_fd_sc_hd__or2_4
XANTENNA__15187__A _15076_/A VGND VGND VPWR VPWR sky130_fd_sc_hd__diode_2
X_15033_ _12495_/A _15033_/B VGND VGND VPWR VPWR _15033_/X sky130_fd_sc_hd__or2_4
X_12245_ _13301_/A _12376_/B VGND VGND VPWR VPWR _12246_/C sky130_fd_sc_hd__or2_4
XANTENNA__12604__A _12604_/A VGND VGND VPWR VPWR sky130_fd_sc_hd__diode_2
XANTENNA__14091__A _14138_/A VGND VGND VPWR VPWR sky130_fd_sc_hd__diode_2
XFILLER_123_731 VGND VGND VPWR VPWR sky130_fd_sc_hd__fill_1
XANTENNA__21072__A2 _21066_/X VGND VGND VPWR VPWR sky130_fd_sc_hd__diode_2
X_12176_ _12138_/A _12172_/X _12175_/X VGND VGND VPWR VPWR _12176_/X sky130_fd_sc_hd__or3_4
X_19841_ _19662_/B _19868_/B _19691_/Y VGND VGND VPWR VPWR _19842_/A sky130_fd_sc_hd__o21a_4
XFILLER_122_241 VGND VGND VPWR VPWR sky130_fd_sc_hd__fill_1
XFILLER_174_94 VGND VGND VPWR VPWR sky130_fd_sc_hd__decap_12
XANTENNA__20821__A HRDATA[8] VGND VGND VPWR VPWR sky130_fd_sc_hd__diode_2
XFILLER_64_1249 VGND VGND VPWR VPWR sky130_fd_sc_hd__fill_2
XFILLER_151_1208 VGND VGND VPWR VPWR sky130_fd_sc_hd__decap_12
XANTENNA__15915__A _15849_/X VGND VGND VPWR VPWR sky130_fd_sc_hd__diode_2
XFILLER_96_637 VGND VGND VPWR VPWR sky130_fd_sc_hd__fill_2
XFILLER_111_959 VGND VGND VPWR VPWR sky130_fd_sc_hd__decap_8
XFILLER_7_1121 VGND VGND VPWR VPWR sky130_fd_sc_hd__fill_1
X_16984_ _17708_/A _18403_/B VGND VGND VPWR VPWR _17906_/B sky130_fd_sc_hd__or2_4
X_19772_ _19469_/X _19771_/X _16684_/A _19515_/X VGND VGND VPWR VPWR _19772_/Y sky130_fd_sc_hd__a22oi_4
XFILLER_27_1082 VGND VGND VPWR VPWR sky130_fd_sc_hd__decap_8
XFILLER_49_542 VGND VGND VPWR VPWR sky130_fd_sc_hd__decap_6
X_15935_ _15934_/X VGND VGND VPWR VPWR _15971_/A sky130_fd_sc_hd__buf_2
X_18723_ _16971_/A _18722_/Y _17749_/X VGND VGND VPWR VPWR _18723_/X sky130_fd_sc_hd__a21o_4
XFILLER_77_862 VGND VGND VPWR VPWR sky130_fd_sc_hd__decap_6
XFILLER_49_564 VGND VGND VPWR VPWR sky130_fd_sc_hd__decap_12
Xclkbuf_7_24_0_HCLK clkbuf_6_12_0_HCLK/X VGND VGND VPWR VPWR _24302_/CLK sky130_fd_sc_hd__clkbuf_1
XFILLER_114_1063 VGND VGND VPWR VPWR sky130_fd_sc_hd__decap_4
XANTENNA__13435__A _12889_/A VGND VGND VPWR VPWR sky130_fd_sc_hd__diode_2
XFILLER_77_895 VGND VGND VPWR VPWR sky130_fd_sc_hd__fill_1
X_18654_ _17805_/X _18054_/Y _17869_/A _18653_/X VGND VGND VPWR VPWR _18654_/X sky130_fd_sc_hd__a211o_4
X_15866_ _13540_/X _15866_/B VGND VGND VPWR VPWR _15866_/X sky130_fd_sc_hd__or2_4
Xclkbuf_7_87_0_HCLK clkbuf_7_86_0_HCLK/A VGND VGND VPWR VPWR _23290_/CLK sky130_fd_sc_hd__clkbuf_1
XFILLER_97_1036 VGND VGND VPWR VPWR sky130_fd_sc_hd__fill_1
XFILLER_149_1137 VGND VGND VPWR VPWR sky130_fd_sc_hd__decap_3
X_17605_ _18290_/A _17508_/X _17517_/A _17605_/D VGND VGND VPWR VPWR _17605_/X sky130_fd_sc_hd__or4_4
X_14817_ _14685_/A _14817_/B _14817_/C VGND VGND VPWR VPWR _14818_/C sky130_fd_sc_hd__and3_4
X_18585_ _17111_/X _18157_/Y _17869_/X _18584_/Y VGND VGND VPWR VPWR _18585_/X sky130_fd_sc_hd__a211o_4
X_15797_ _12848_/A _15797_/B VGND VGND VPWR VPWR _15797_/X sky130_fd_sc_hd__or2_4
XANTENNA__16746__A _11963_/A VGND VGND VPWR VPWR sky130_fd_sc_hd__diode_2
XFILLER_45_792 VGND VGND VPWR VPWR sky130_fd_sc_hd__fill_1
X_17536_ _17528_/A _17535_/X VGND VGND VPWR VPWR _17536_/Y sky130_fd_sc_hd__nor2_4
XFILLER_83_80 VGND VGND VPWR VPWR sky130_fd_sc_hd__fill_1
XANTENNA__15650__A _11668_/A VGND VGND VPWR VPWR sky130_fd_sc_hd__diode_2
X_14748_ _11913_/A _14748_/B _14748_/C VGND VGND VPWR VPWR _14749_/C sky130_fd_sc_hd__and3_4
XFILLER_32_420 VGND VGND VPWR VPWR sky130_fd_sc_hd__decap_4
XANTENNA__20268__A _20267_/X VGND VGND VPWR VPWR sky130_fd_sc_hd__diode_2
XFILLER_33_965 VGND VGND VPWR VPWR sky130_fd_sc_hd__decap_8
XANTENNA__24332__RESET_B HRESETn VGND VGND VPWR VPWR sky130_fd_sc_hd__diode_2
X_17467_ _12842_/X _17467_/B VGND VGND VPWR VPWR _17467_/X sky130_fd_sc_hd__or2_4
XANTENNA__14014__A1 _13951_/X VGND VGND VPWR VPWR sky130_fd_sc_hd__diode_2
X_14679_ _14679_/A _23418_/Q VGND VGND VPWR VPWR _14680_/C sky130_fd_sc_hd__or2_4
X_16418_ _13475_/A _16414_/X _16417_/X VGND VGND VPWR VPWR _16419_/B sky130_fd_sc_hd__or3_4
X_19206_ _24318_/Q _19138_/X _19205_/Y VGND VGND VPWR VPWR _19206_/X sky130_fd_sc_hd__o21a_4
XFILLER_165_609 VGND VGND VPWR VPWR sky130_fd_sc_hd__fill_1
XFILLER_158_650 VGND VGND VPWR VPWR sky130_fd_sc_hd__decap_3
X_17398_ _17398_/A VGND VGND VPWR VPWR _17398_/Y sky130_fd_sc_hd__inv_2
XFILLER_146_812 VGND VGND VPWR VPWR sky130_fd_sc_hd__fill_1
XFILLER_121_1012 VGND VGND VPWR VPWR sky130_fd_sc_hd__decap_6
X_19137_ _19137_/A _19211_/A VGND VGND VPWR VPWR _19138_/B sky130_fd_sc_hd__and2_4
X_16349_ _16314_/X _16347_/X _16348_/X VGND VGND VPWR VPWR _16349_/X sky130_fd_sc_hd__and3_4
XANTENNA__21835__B2 _21834_/X VGND VGND VPWR VPWR sky130_fd_sc_hd__diode_2
XFILLER_146_834 VGND VGND VPWR VPWR sky130_fd_sc_hd__fill_1
XANTENNA__16481__A _13385_/A VGND VGND VPWR VPWR sky130_fd_sc_hd__diode_2
XFILLER_146_867 VGND VGND VPWR VPWR sky130_fd_sc_hd__decap_6
X_19068_ _19024_/A VGND VGND VPWR VPWR _19068_/X sky130_fd_sc_hd__buf_2
XFILLER_172_152 VGND VGND VPWR VPWR sky130_fd_sc_hd__fill_1
XFILLER_145_388 VGND VGND VPWR VPWR sky130_fd_sc_hd__fill_1
X_18019_ _16933_/Y VGND VGND VPWR VPWR _18019_/X sky130_fd_sc_hd__buf_2
XANTENNA__15097__A _15081_/A VGND VGND VPWR VPWR sky130_fd_sc_hd__diode_2
XANTENNA__19792__A HRDATA[16] VGND VGND VPWR VPWR sky130_fd_sc_hd__diode_2
X_21030_ _21030_/A VGND VGND VPWR VPWR _21134_/D sky130_fd_sc_hd__buf_2
XANTENNA__21827__A _21839_/A VGND VGND VPWR VPWR sky130_fd_sc_hd__diode_2
XFILLER_113_241 VGND VGND VPWR VPWR sky130_fd_sc_hd__decap_3
XANTENNA__22260__B2 _22255_/X VGND VGND VPWR VPWR sky130_fd_sc_hd__diode_2
XFILLER_59_317 VGND VGND VPWR VPWR sky130_fd_sc_hd__fill_1
XANTENNA__15825__A _12866_/A VGND VGND VPWR VPWR sky130_fd_sc_hd__diode_2
XFILLER_141_594 VGND VGND VPWR VPWR sky130_fd_sc_hd__decap_6
XFILLER_102_959 VGND VGND VPWR VPWR sky130_fd_sc_hd__decap_12
XFILLER_68_840 VGND VGND VPWR VPWR sky130_fd_sc_hd__decap_4
XFILLER_86_136 VGND VGND VPWR VPWR sky130_fd_sc_hd__decap_12
XFILLER_41_1002 VGND VGND VPWR VPWR sky130_fd_sc_hd__fill_1
XANTENNA__22012__A1 _21841_/X VGND VGND VPWR VPWR sky130_fd_sc_hd__diode_2
XFILLER_132_1130 VGND VGND VPWR VPWR sky130_fd_sc_hd__decap_3
XANTENNA__22012__B2 _22007_/X VGND VGND VPWR VPWR sky130_fd_sc_hd__diode_2
X_22981_ _22978_/X _22981_/B _22981_/C VGND VGND VPWR VPWR _22981_/X sky130_fd_sc_hd__and3_4
XFILLER_67_361 VGND VGND VPWR VPWR sky130_fd_sc_hd__decap_4
XFILLER_83_810 VGND VGND VPWR VPWR sky130_fd_sc_hd__decap_8
XFILLER_95_670 VGND VGND VPWR VPWR sky130_fd_sc_hd__fill_1
XANTENNA__22563__A2 _22558_/X VGND VGND VPWR VPWR sky130_fd_sc_hd__diode_2
XANTENNA__13345__A _13384_/A VGND VGND VPWR VPWR sky130_fd_sc_hd__diode_2
X_21932_ _21877_/X _21930_/X _14728_/B _21927_/X VGND VGND VPWR VPWR _23577_/D sky130_fd_sc_hd__o22a_4
XFILLER_55_534 VGND VGND VPWR VPWR sky130_fd_sc_hd__fill_1
XFILLER_82_320 VGND VGND VPWR VPWR sky130_fd_sc_hd__decap_4
XANTENNA__22658__A _22658_/A VGND VGND VPWR VPWR sky130_fd_sc_hd__diode_2
XFILLER_103_57 VGND VGND VPWR VPWR sky130_fd_sc_hd__decap_4
X_21863_ _21808_/A VGND VGND VPWR VPWR _21863_/X sky130_fd_sc_hd__buf_2
X_23602_ _23537_/CLK _23602_/D VGND VGND VPWR VPWR _23602_/Q sky130_fd_sc_hd__dfxtp_4
X_20814_ _20814_/A VGND VGND VPWR VPWR _20814_/Y sky130_fd_sc_hd__inv_2
X_21794_ _21582_/X _21791_/X _23645_/Q _21788_/X VGND VGND VPWR VPWR _21794_/X sky130_fd_sc_hd__o22a_4
XPHY_905 VGND VPWR sky130_fd_sc_hd__tapvpwrvgnd_1
XFILLER_35_280 VGND VGND VPWR VPWR sky130_fd_sc_hd__decap_6
XPHY_2205 VGND VPWR sky130_fd_sc_hd__tapvpwrvgnd_1
XPHY_916 VGND VPWR sky130_fd_sc_hd__tapvpwrvgnd_1
XPHY_2216 VGND VPWR sky130_fd_sc_hd__tapvpwrvgnd_1
XFILLER_169_926 VGND VGND VPWR VPWR sky130_fd_sc_hd__decap_3
XPHY_927 VGND VPWR sky130_fd_sc_hd__tapvpwrvgnd_1
XFILLER_24_976 VGND VGND VPWR VPWR sky130_fd_sc_hd__decap_4
XPHY_938 VGND VPWR sky130_fd_sc_hd__tapvpwrvgnd_1
XPHY_2227 VGND VPWR sky130_fd_sc_hd__tapvpwrvgnd_1
X_23533_ _23533_/CLK _22005_/X VGND VGND VPWR VPWR _16167_/B sky130_fd_sc_hd__dfxtp_4
XPHY_949 VGND VPWR sky130_fd_sc_hd__tapvpwrvgnd_1
XPHY_2238 VGND VPWR sky130_fd_sc_hd__tapvpwrvgnd_1
X_20745_ _20745_/A VGND VGND VPWR VPWR _20745_/X sky130_fd_sc_hd__buf_2
XPHY_1504 VGND VPWR sky130_fd_sc_hd__tapvpwrvgnd_1
XPHY_2249 VGND VPWR sky130_fd_sc_hd__tapvpwrvgnd_1
XPHY_1515 VGND VPWR sky130_fd_sc_hd__tapvpwrvgnd_1
XANTENNA__13080__A _13055_/A VGND VGND VPWR VPWR sky130_fd_sc_hd__diode_2
XPHY_1526 VGND VPWR sky130_fd_sc_hd__tapvpwrvgnd_1
XANTENNA__22079__A1 _21869_/X VGND VGND VPWR VPWR sky130_fd_sc_hd__diode_2
XPHY_1537 VGND VPWR sky130_fd_sc_hd__tapvpwrvgnd_1
X_23464_ _23496_/CLK _22126_/X VGND VGND VPWR VPWR _13013_/B sky130_fd_sc_hd__dfxtp_4
XANTENNA__22079__B2 _22078_/X VGND VGND VPWR VPWR sky130_fd_sc_hd__diode_2
XPHY_1548 VGND VPWR sky130_fd_sc_hd__tapvpwrvgnd_1
X_20676_ _20447_/A VGND VGND VPWR VPWR _20676_/X sky130_fd_sc_hd__buf_2
XPHY_1559 VGND VPWR sky130_fd_sc_hd__tapvpwrvgnd_1
XANTENNA__12408__B _24108_/Q VGND VGND VPWR VPWR sky130_fd_sc_hd__diode_2
XANTENNA__20629__A2 _20443_/X VGND VGND VPWR VPWR sky130_fd_sc_hd__diode_2
XANTENNA__17487__A _12680_/X VGND VGND VPWR VPWR sky130_fd_sc_hd__diode_2
X_22415_ _22412_/X _22414_/X _12114_/B _22409_/X VGND VGND VPWR VPWR _22415_/X sky130_fd_sc_hd__o22a_4
XANTENNA__16391__A _16009_/X VGND VGND VPWR VPWR sky130_fd_sc_hd__diode_2
X_23395_ _23523_/CLK _22253_/X VGND VGND VPWR VPWR _15829_/B sky130_fd_sc_hd__dfxtp_4
XFILLER_12_32 VGND VGND VPWR VPWR sky130_fd_sc_hd__decap_4
XFILLER_13_1148 VGND VGND VPWR VPWR sky130_fd_sc_hd__decap_8
XFILLER_164_642 VGND VGND VPWR VPWR sky130_fd_sc_hd__decap_4
XFILLER_100_1107 VGND VGND VPWR VPWR sky130_fd_sc_hd__decap_12
XFILLER_104_1276 VGND VGND VPWR VPWR sky130_fd_sc_hd__fill_1
XFILLER_128_32 VGND VGND VPWR VPWR sky130_fd_sc_hd__decap_12
X_22346_ _22346_/A VGND VGND VPWR VPWR _23324_/D sky130_fd_sc_hd__buf_2
XFILLER_124_506 VGND VGND VPWR VPWR sky130_fd_sc_hd__decap_3
XANTENNA__12319__A1 _11856_/A VGND VGND VPWR VPWR sky130_fd_sc_hd__diode_2
XANTENNA__23697__CLK _23761_/CLK VGND VGND VPWR VPWR sky130_fd_sc_hd__diode_2
XFILLER_151_303 VGND VGND VPWR VPWR sky130_fd_sc_hd__fill_2
X_22277_ _22284_/A VGND VGND VPWR VPWR _22277_/X sky130_fd_sc_hd__buf_2
XFILLER_152_859 VGND VGND VPWR VPWR sky130_fd_sc_hd__decap_8
XANTENNA__12424__A _12466_/A VGND VGND VPWR VPWR sky130_fd_sc_hd__diode_2
XANTENNA__22840__B _14483_/Y VGND VGND VPWR VPWR sky130_fd_sc_hd__diode_2
X_12030_ _16595_/A VGND VGND VPWR VPWR _16702_/A sky130_fd_sc_hd__buf_2
XANTENNA__21054__A2 _21052_/X VGND VGND VPWR VPWR sky130_fd_sc_hd__diode_2
X_24016_ _24080_/CLK _21146_/X VGND VGND VPWR VPWR _16406_/B sky130_fd_sc_hd__dfxtp_4
XFILLER_3_869 VGND VGND VPWR VPWR sky130_fd_sc_hd__fill_1
X_21228_ _20938_/X _21226_/X _14737_/B _21223_/X VGND VGND VPWR VPWR _23961_/D sky130_fd_sc_hd__o22a_4
XFILLER_104_241 VGND VGND VPWR VPWR sky130_fd_sc_hd__decap_4
XFILLER_120_701 VGND VGND VPWR VPWR sky130_fd_sc_hd__fill_1
XANTENNA__15735__A _12783_/X VGND VGND VPWR VPWR sky130_fd_sc_hd__diode_2
X_21159_ _21152_/A VGND VGND VPWR VPWR _21159_/X sky130_fd_sc_hd__buf_2
XANTENNA__18111__A _18111_/A VGND VGND VPWR VPWR sky130_fd_sc_hd__diode_2
XFILLER_78_659 VGND VGND VPWR VPWR sky130_fd_sc_hd__fill_1
XANTENNA__15454__B _15454_/B VGND VGND VPWR VPWR sky130_fd_sc_hd__diode_2
X_13981_ _13981_/A _13980_/X VGND VGND VPWR VPWR _13981_/X sky130_fd_sc_hd__and2_4
XFILLER_150_1252 VGND VGND VPWR VPWR sky130_fd_sc_hd__decap_12
XFILLER_74_810 VGND VGND VPWR VPWR sky130_fd_sc_hd__decap_12
XFILLER_101_970 VGND VGND VPWR VPWR sky130_fd_sc_hd__fill_2
XFILLER_92_117 VGND VGND VPWR VPWR sky130_fd_sc_hd__decap_4
XANTENNA__13255__A _13248_/A VGND VGND VPWR VPWR sky130_fd_sc_hd__diode_2
XANTENNA__22554__A2 _22551_/X VGND VGND VPWR VPWR sky130_fd_sc_hd__diode_2
X_15720_ _12762_/A _15658_/B VGND VGND VPWR VPWR _15720_/X sky130_fd_sc_hd__or2_4
X_12932_ _12951_/A _23945_/Q VGND VGND VPWR VPWR _12932_/X sky130_fd_sc_hd__or2_4
XFILLER_100_480 VGND VGND VPWR VPWR sky130_fd_sc_hd__fill_1
XFILLER_37_62 VGND VGND VPWR VPWR sky130_fd_sc_hd__decap_8
X_15651_ _15651_/A VGND VGND VPWR VPWR _15651_/X sky130_fd_sc_hd__buf_2
X_12863_ _12863_/A _24041_/Q VGND VGND VPWR VPWR _12865_/B sky130_fd_sc_hd__or2_4
XANTENNA__24322__CLK _24292_/CLK VGND VGND VPWR VPWR sky130_fd_sc_hd__diode_2
XFILLER_46_578 VGND VGND VPWR VPWR sky130_fd_sc_hd__fill_2
XANTENNA__22306__A2 _22301_/X VGND VGND VPWR VPWR sky130_fd_sc_hd__diode_2
X_14602_ _15408_/A _14600_/X _14601_/X VGND VGND VPWR VPWR _14602_/X sky130_fd_sc_hd__and3_4
X_11814_ _12978_/A VGND VGND VPWR VPWR _13416_/A sky130_fd_sc_hd__buf_2
X_18370_ _18358_/X _18370_/B VGND VGND VPWR VPWR _18370_/X sky130_fd_sc_hd__and2_4
X_15582_ _11855_/A _11629_/A _15551_/X _11606_/A _15581_/X VGND VGND VPWR VPWR _15582_/X
+ sky130_fd_sc_hd__a32o_4
XPHY_3440 VGND VPWR sky130_fd_sc_hd__tapvpwrvgnd_1
X_12794_ _12833_/A _12794_/B VGND VGND VPWR VPWR _12798_/B sky130_fd_sc_hd__or2_4
XPHY_3451 VGND VPWR sky130_fd_sc_hd__tapvpwrvgnd_1
XFILLER_14_431 VGND VGND VPWR VPWR sky130_fd_sc_hd__decap_4
XFILLER_14_442 VGND VGND VPWR VPWR sky130_fd_sc_hd__decap_12
X_17321_ _19852_/A _17039_/X _12882_/A _17297_/X VGND VGND VPWR VPWR _17321_/X sky130_fd_sc_hd__o22a_4
XPHY_3462 VGND VPWR sky130_fd_sc_hd__tapvpwrvgnd_1
XFILLER_148_1181 VGND VGND VPWR VPWR sky130_fd_sc_hd__decap_8
X_14533_ _14509_/A _14531_/X _14532_/X VGND VGND VPWR VPWR _14533_/X sky130_fd_sc_hd__and3_4
XPHY_3473 VGND VPWR sky130_fd_sc_hd__tapvpwrvgnd_1
XANTENNA__13702__B _13702_/B VGND VGND VPWR VPWR sky130_fd_sc_hd__diode_2
X_11745_ _12151_/A _11745_/B VGND VGND VPWR VPWR _11745_/X sky130_fd_sc_hd__or2_4
XPHY_3484 VGND VPWR sky130_fd_sc_hd__tapvpwrvgnd_1
XANTENNA__14086__A _14086_/A VGND VGND VPWR VPWR sky130_fd_sc_hd__diode_2
XANTENNA__17194__B1 _14701_/Y VGND VGND VPWR VPWR sky130_fd_sc_hd__diode_2
XPHY_3495 VGND VPWR sky130_fd_sc_hd__tapvpwrvgnd_1
XPHY_2750 VGND VPWR sky130_fd_sc_hd__tapvpwrvgnd_1
XFILLER_109_1165 VGND VGND VPWR VPWR sky130_fd_sc_hd__fill_1
XANTENNA__18781__A _18780_/X VGND VGND VPWR VPWR sky130_fd_sc_hd__diode_2
XANTENNA__18930__A1 _14261_/A VGND VGND VPWR VPWR sky130_fd_sc_hd__diode_2
XPHY_2761 VGND VPWR sky130_fd_sc_hd__tapvpwrvgnd_1
XFILLER_144_1067 VGND VGND VPWR VPWR sky130_fd_sc_hd__fill_1
X_17252_ _17047_/X _17251_/X _17051_/X VGND VGND VPWR VPWR _17252_/Y sky130_fd_sc_hd__o21ai_4
XFILLER_147_609 VGND VGND VPWR VPWR sky130_fd_sc_hd__fill_1
X_14464_ _13011_/A _14464_/B _14464_/C VGND VGND VPWR VPWR _14464_/X sky130_fd_sc_hd__and3_4
XPHY_2772 VGND VPWR sky130_fd_sc_hd__tapvpwrvgnd_1
X_11676_ _12641_/A VGND VGND VPWR VPWR _13530_/A sky130_fd_sc_hd__buf_2
XPHY_2783 VGND VPWR sky130_fd_sc_hd__tapvpwrvgnd_1
XPHY_2794 VGND VPWR sky130_fd_sc_hd__tapvpwrvgnd_1
XANTENNA__20816__A _20857_/A VGND VGND VPWR VPWR sky130_fd_sc_hd__diode_2